<routes>
        <vType id="typeWE" accel="0.8" decel="4.5" sigma="0.5" length="5" minGap="2.5" maxSpeed="16.67" guiShape="passenger"/>
        <vType id="typeNS" accel="0.8" decel="4.5" sigma="0.5" length="170" minGap="3" maxSpeed="10" guiShape="rail/cargo"/>
        <vType id="typeEWEmerg" vClass="emergency" accel="0.8" decel="4.5" sigma="0.5" length="10" minGap="2.5" maxSpeed="25.67" guiShape="emergency"/>

        <route id="right" edges="51o 1i 2o 52i" />
        <route id="left" edges="52o 2i 1o 51i" />
        <route id="down" edges="54o 4i 3o 53i" />
    <vehicle id="left_0" type="typeWE" route="left" depart="0" />
    <vehicle id="left_1" type="typeWE" route="left" depart="2" />
    <vehicle id="right_2" type="typeWE" route="right" depart="3" />
    <vehicle id="right_3" type="typeEWEmerg" route="right" depart="4" />
    <vehicle id="left_4" type="typeWE" route="left" depart="10" />
    <vehicle id="right_5" type="typeWE" route="right" depart="11" />
    <vehicle id="right_6" type="typeWE" route="right" depart="22" />
    <vehicle id="left_7" type="typeWE" route="left" depart="22" />
    <vehicle id="right_8" type="typeWE" route="right" depart="25" />
    <vehicle id="right_9" type="typeWE" route="right" depart="31" />
    <vehicle id="right_10" type="typeWE" route="right" depart="34" />
    <vehicle id="right_11" type="typeWE" route="right" depart="40" />
    <vehicle id="left_12" type="typeWE" route="left" depart="41" />
    <vehicle id="right_13" type="typeWE" route="right" depart="44" />
    <vehicle id="left_14" type="typeWE" route="left" depart="49" />
    <vehicle id="right_15" type="typeWE" route="right" depart="56" />
    <vehicle id="right_16" type="typeWE" route="right" depart="63" />
    <vehicle id="right_17" type="typeWE" route="right" depart="64" />
    <vehicle id="left_18" type="typeWE" route="left" depart="67" />
    <vehicle id="down_19" type="typeNS" route="down" depart="72" color="1,0,0"/>
    <vehicle id="left_20" type="typeWE" route="left" depart="74" />
    <vehicle id="right_21" type="typeWE" route="right" depart="81" />
    <vehicle id="right_22" type="typeWE" route="right" depart="92" />
    <vehicle id="down_23" type="typeNS" route="down" depart="98" color="1,0,0"/>
    <vehicle id="right_24" type="typeEWEmerg" route="right" depart="106" />
    <vehicle id="right_25" type="typeWE" route="right" depart="115" />
    <vehicle id="left_26" type="typeWE" route="left" depart="117" />
    <vehicle id="left_27" type="typeWE" route="left" depart="120" />
    <vehicle id="left_28" type="typeWE" route="left" depart="123" />
    <vehicle id="left_29" type="typeWE" route="left" depart="125" />
    <vehicle id="right_30" type="typeWE" route="right" depart="126" />
    <vehicle id="right_31" type="typeWE" route="right" depart="127" />
    <vehicle id="left_32" type="typeWE" route="left" depart="129" />
    <vehicle id="right_33" type="typeWE" route="right" depart="132" />
    <vehicle id="left_34" type="typeWE" route="left" depart="137" />
    <vehicle id="left_35" type="typeWE" route="left" depart="147" />
    <vehicle id="right_36" type="typeWE" route="right" depart="150" />
    <vehicle id="right_37" type="typeWE" route="right" depart="152" />
    <vehicle id="left_38" type="typeWE" route="left" depart="159" />
    <vehicle id="right_39" type="typeWE" route="right" depart="164" />
    <vehicle id="right_40" type="typeWE" route="right" depart="171" />
    <vehicle id="right_41" type="typeWE" route="right" depart="179" />
    <vehicle id="right_42" type="typeWE" route="right" depart="180" />
    <vehicle id="right_43" type="typeWE" route="right" depart="182" />
    <vehicle id="left_44" type="typeWE" route="left" depart="204" />
    <vehicle id="right_45" type="typeWE" route="right" depart="213" />
    <vehicle id="right_46" type="typeWE" route="right" depart="216" />
    <vehicle id="left_47" type="typeWE" route="left" depart="218" />
    <vehicle id="right_48" type="typeWE" route="right" depart="227" />
    <vehicle id="right_49" type="typeWE" route="right" depart="239" />
    <vehicle id="right_50" type="typeWE" route="right" depart="245" />
    <vehicle id="right_51" type="typeWE" route="right" depart="250" />
    <vehicle id="left_52" type="typeWE" route="left" depart="253" />
    <vehicle id="down_53" type="typeNS" route="down" depart="256" color="1,0,0"/>
    <vehicle id="left_54" type="typeWE" route="left" depart="258" />
    <vehicle id="left_55" type="typeWE" route="left" depart="262" />
    <vehicle id="left_56" type="typeWE" route="left" depart="265" />
    <vehicle id="right_57" type="typeWE" route="right" depart="266" />
    <vehicle id="left_58" type="typeWE" route="left" depart="281" />
    <vehicle id="left_59" type="typeWE" route="left" depart="283" />
    <vehicle id="right_60" type="typeWE" route="right" depart="287" />
    <vehicle id="left_61" type="typeWE" route="left" depart="287" />
    <vehicle id="left_62" type="typeWE" route="left" depart="291" />
    <vehicle id="right_63" type="typeWE" route="right" depart="292" />
    <vehicle id="right_64" type="typeWE" route="right" depart="296" />
    <vehicle id="left_65" type="typeWE" route="left" depart="296" />
    <vehicle id="left_66" type="typeWE" route="left" depart="298" />
    <vehicle id="right_67" type="typeWE" route="right" depart="309" />
    <vehicle id="right_68" type="typeWE" route="right" depart="310" />
    <vehicle id="right_69" type="typeWE" route="right" depart="311" />
    <vehicle id="left_70" type="typeWE" route="left" depart="315" />
    <vehicle id="right_71" type="typeWE" route="right" depart="320" />
    <vehicle id="right_72" type="typeWE" route="right" depart="329" />
    <vehicle id="left_73" type="typeWE" route="left" depart="343" />
    <vehicle id="right_74" type="typeEWEmerg" route="right" depart="347" />
    <vehicle id="right_75" type="typeWE" route="right" depart="348" />
    <vehicle id="left_76" type="typeWE" route="left" depart="350" />
    <vehicle id="right_77" type="typeWE" route="right" depart="352" />
    <vehicle id="left_78" type="typeWE" route="left" depart="357" />
    <vehicle id="left_79" type="typeWE" route="left" depart="359" />
    <vehicle id="right_80" type="typeWE" route="right" depart="363" />
    <vehicle id="left_81" type="typeWE" route="left" depart="369" />
    <vehicle id="left_82" type="typeWE" route="left" depart="372" />
    <vehicle id="right_83" type="typeWE" route="right" depart="374" />
    <vehicle id="left_84" type="typeWE" route="left" depart="376" />
    <vehicle id="right_85" type="typeWE" route="right" depart="389" />
    <vehicle id="left_86" type="typeWE" route="left" depart="392" />
    <vehicle id="right_87" type="typeWE" route="right" depart="402" />
    <vehicle id="left_88" type="typeWE" route="left" depart="402" />
    <vehicle id="right_89" type="typeWE" route="right" depart="406" />
    <vehicle id="left_90" type="typeWE" route="left" depart="406" />
    <vehicle id="left_91" type="typeWE" route="left" depart="414" />
    <vehicle id="left_92" type="typeWE" route="left" depart="430" />
    <vehicle id="right_93" type="typeEWEmerg" route="right" depart="451" />
    <vehicle id="right_94" type="typeWE" route="right" depart="459" />
    <vehicle id="left_95" type="typeWE" route="left" depart="469" />
    <vehicle id="right_96" type="typeWE" route="right" depart="477" />
    <vehicle id="right_97" type="typeWE" route="right" depart="481" />
    <vehicle id="right_98" type="typeWE" route="right" depart="483" />
    <vehicle id="left_99" type="typeWE" route="left" depart="484" />
    <vehicle id="left_100" type="typeWE" route="left" depart="490" />
    <vehicle id="left_101" type="typeWE" route="left" depart="495" />
    <vehicle id="right_102" type="typeWE" route="right" depart="496" />
    <vehicle id="right_103" type="typeWE" route="right" depart="501" />
    <vehicle id="right_104" type="typeWE" route="right" depart="517" />
    <vehicle id="right_105" type="typeWE" route="right" depart="528" />
    <vehicle id="right_106" type="typeWE" route="right" depart="530" />
    <vehicle id="right_107" type="typeWE" route="right" depart="533" />
    <vehicle id="right_108" type="typeWE" route="right" depart="538" />
    <vehicle id="left_109" type="typeWE" route="left" depart="538" />
    <vehicle id="right_110" type="typeWE" route="right" depart="540" />
    <vehicle id="right_111" type="typeWE" route="right" depart="542" />
    <vehicle id="right_112" type="typeWE" route="right" depart="543" />
    <vehicle id="right_113" type="typeWE" route="right" depart="545" />
    <vehicle id="left_114" type="typeWE" route="left" depart="548" />
    <vehicle id="left_115" type="typeWE" route="left" depart="550" />
    <vehicle id="left_116" type="typeWE" route="left" depart="555" />
    <vehicle id="right_117" type="typeWE" route="right" depart="558" />
    <vehicle id="right_118" type="typeWE" route="right" depart="562" />
    <vehicle id="right_119" type="typeWE" route="right" depart="563" />
    <vehicle id="left_120" type="typeWE" route="left" depart="576" />
    <vehicle id="right_121" type="typeWE" route="right" depart="596" />
    <vehicle id="right_122" type="typeWE" route="right" depart="601" />
    <vehicle id="right_123" type="typeWE" route="right" depart="606" />
    <vehicle id="right_124" type="typeWE" route="right" depart="609" />
    <vehicle id="left_125" type="typeWE" route="left" depart="609" />
    <vehicle id="left_126" type="typeWE" route="left" depart="613" />
    <vehicle id="right_127" type="typeWE" route="right" depart="629" />
    <vehicle id="right_128" type="typeWE" route="right" depart="634" />
    <vehicle id="right_129" type="typeEWEmerg" route="right" depart="635" />
    <vehicle id="right_130" type="typeEWEmerg" route="right" depart="640" />
    <vehicle id="right_131" type="typeWE" route="right" depart="642" />
    <vehicle id="right_132" type="typeEWEmerg" route="right" depart="646" />
    <vehicle id="right_133" type="typeWE" route="right" depart="649" />
    <vehicle id="left_134" type="typeWE" route="left" depart="659" />
    <vehicle id="right_135" type="typeWE" route="right" depart="660" />
    <vehicle id="left_136" type="typeWE" route="left" depart="660" />
    <vehicle id="right_137" type="typeWE" route="right" depart="662" />
    <vehicle id="left_138" type="typeWE" route="left" depart="665" />
    <vehicle id="left_139" type="typeWE" route="left" depart="666" />
    <vehicle id="left_140" type="typeWE" route="left" depart="673" />
    <vehicle id="left_141" type="typeWE" route="left" depart="676" />
    <vehicle id="left_142" type="typeWE" route="left" depart="680" />
    <vehicle id="left_143" type="typeWE" route="left" depart="682" />
    <vehicle id="right_144" type="typeEWEmerg" route="right" depart="683" />
    <vehicle id="right_145" type="typeWE" route="right" depart="687" />
    <vehicle id="right_146" type="typeEWEmerg" route="right" depart="688" />
    <vehicle id="left_147" type="typeWE" route="left" depart="694" />
    <vehicle id="left_148" type="typeWE" route="left" depart="697" />
    <vehicle id="left_149" type="typeWE" route="left" depart="704" />
    <vehicle id="left_150" type="typeWE" route="left" depart="706" />
    <vehicle id="right_151" type="typeWE" route="right" depart="709" />
    <vehicle id="left_152" type="typeWE" route="left" depart="709" />
    <vehicle id="right_153" type="typeWE" route="right" depart="711" />
    <vehicle id="left_154" type="typeWE" route="left" depart="714" />
    <vehicle id="left_155" type="typeWE" route="left" depart="721" />
    <vehicle id="right_156" type="typeWE" route="right" depart="724" />
    <vehicle id="left_157" type="typeWE" route="left" depart="727" />
    <vehicle id="right_158" type="typeWE" route="right" depart="730" />
    <vehicle id="right_159" type="typeWE" route="right" depart="731" />
    <vehicle id="right_160" type="typeWE" route="right" depart="733" />
    <vehicle id="right_161" type="typeWE" route="right" depart="745" />
    <vehicle id="down_162" type="typeNS" route="down" depart="747" color="1,0,0"/>
    <vehicle id="right_163" type="typeWE" route="right" depart="751" />
    <vehicle id="left_164" type="typeWE" route="left" depart="752" />
    <vehicle id="left_165" type="typeWE" route="left" depart="758" />
    <vehicle id="right_166" type="typeWE" route="right" depart="763" />
    <vehicle id="left_167" type="typeWE" route="left" depart="782" />
    <vehicle id="left_168" type="typeWE" route="left" depart="785" />
    <vehicle id="right_169" type="typeWE" route="right" depart="801" />
    <vehicle id="right_170" type="typeEWEmerg" route="right" depart="801" />
    <vehicle id="right_171" type="typeEWEmerg" route="right" depart="802" />
    <vehicle id="right_172" type="typeWE" route="right" depart="814" />
    <vehicle id="right_173" type="typeWE" route="right" depart="823" />
    <vehicle id="left_174" type="typeWE" route="left" depart="828" />
    <vehicle id="right_175" type="typeWE" route="right" depart="830" />
    <vehicle id="left_176" type="typeWE" route="left" depart="832" />
    <vehicle id="left_177" type="typeWE" route="left" depart="841" />
    <vehicle id="left_178" type="typeWE" route="left" depart="842" />
    <vehicle id="left_179" type="typeWE" route="left" depart="843" />
    <vehicle id="left_180" type="typeWE" route="left" depart="850" />
    <vehicle id="down_181" type="typeNS" route="down" depart="851" color="1,0,0"/>
    <vehicle id="right_182" type="typeWE" route="right" depart="853" />
    <vehicle id="right_183" type="typeWE" route="right" depart="857" />
    <vehicle id="left_184" type="typeWE" route="left" depart="865" />
    <vehicle id="left_185" type="typeWE" route="left" depart="867" />
    <vehicle id="left_186" type="typeWE" route="left" depart="874" />
    <vehicle id="left_187" type="typeWE" route="left" depart="875" />
    <vehicle id="left_188" type="typeWE" route="left" depart="879" />
    <vehicle id="right_189" type="typeWE" route="right" depart="886" />
    <vehicle id="left_190" type="typeWE" route="left" depart="892" />
    <vehicle id="right_191" type="typeWE" route="right" depart="906" />
    <vehicle id="right_192" type="typeWE" route="right" depart="909" />
    <vehicle id="left_193" type="typeWE" route="left" depart="924" />
    <vehicle id="right_194" type="typeWE" route="right" depart="928" />
    <vehicle id="right_195" type="typeEWEmerg" route="right" depart="934" />
    <vehicle id="right_196" type="typeWE" route="right" depart="935" />
    <vehicle id="right_197" type="typeWE" route="right" depart="939" />
    <vehicle id="left_198" type="typeWE" route="left" depart="939" />
    <vehicle id="left_199" type="typeWE" route="left" depart="950" />
    <vehicle id="left_200" type="typeWE" route="left" depart="956" />
    <vehicle id="right_201" type="typeWE" route="right" depart="961" />
    <vehicle id="left_202" type="typeWE" route="left" depart="966" />
    <vehicle id="left_203" type="typeWE" route="left" depart="967" />
    <vehicle id="right_204" type="typeWE" route="right" depart="976" />
    <vehicle id="right_205" type="typeWE" route="right" depart="978" />
    <vehicle id="left_206" type="typeWE" route="left" depart="988" />
    <vehicle id="right_207" type="typeWE" route="right" depart="990" />
    <vehicle id="left_208" type="typeWE" route="left" depart="999" />
    <vehicle id="right_209" type="typeWE" route="right" depart="1005" />
    <vehicle id="left_210" type="typeWE" route="left" depart="1008" />
    <vehicle id="right_211" type="typeEWEmerg" route="right" depart="1017" />
    <vehicle id="right_212" type="typeWE" route="right" depart="1018" />
    <vehicle id="right_213" type="typeWE" route="right" depart="1019" />
    <vehicle id="left_214" type="typeWE" route="left" depart="1025" />
    <vehicle id="left_215" type="typeWE" route="left" depart="1031" />
    <vehicle id="right_216" type="typeWE" route="right" depart="1036" />
    <vehicle id="right_217" type="typeWE" route="right" depart="1038" />
    <vehicle id="right_218" type="typeWE" route="right" depart="1049" />
    <vehicle id="right_219" type="typeWE" route="right" depart="1052" />
    <vehicle id="right_220" type="typeWE" route="right" depart="1065" />
    <vehicle id="right_221" type="typeWE" route="right" depart="1071" />
    <vehicle id="right_222" type="typeWE" route="right" depart="1076" />
    <vehicle id="left_223" type="typeWE" route="left" depart="1078" />
    <vehicle id="right_224" type="typeWE" route="right" depart="1081" />
    <vehicle id="down_225" type="typeNS" route="down" depart="1087" color="1,0,0"/>
    <vehicle id="right_226" type="typeEWEmerg" route="right" depart="1088" />
    <vehicle id="right_227" type="typeEWEmerg" route="right" depart="1089" />
    <vehicle id="right_228" type="typeEWEmerg" route="right" depart="1090" />
    <vehicle id="right_229" type="typeWE" route="right" depart="1098" />
    <vehicle id="left_230" type="typeWE" route="left" depart="1103" />
    <vehicle id="left_231" type="typeWE" route="left" depart="1106" />
    <vehicle id="right_232" type="typeEWEmerg" route="right" depart="1112" />
    <vehicle id="right_233" type="typeWE" route="right" depart="1113" />
    <vehicle id="right_234" type="typeWE" route="right" depart="1116" />
    <vehicle id="right_235" type="typeWE" route="right" depart="1123" />
    <vehicle id="left_236" type="typeWE" route="left" depart="1124" />
    <vehicle id="left_237" type="typeWE" route="left" depart="1125" />
    <vehicle id="left_238" type="typeWE" route="left" depart="1129" />
    <vehicle id="right_239" type="typeWE" route="right" depart="1133" />
    <vehicle id="left_240" type="typeWE" route="left" depart="1134" />
    <vehicle id="right_241" type="typeWE" route="right" depart="1137" />
    <vehicle id="right_242" type="typeWE" route="right" depart="1138" />
    <vehicle id="left_243" type="typeWE" route="left" depart="1150" />
    <vehicle id="left_244" type="typeWE" route="left" depart="1152" />
    <vehicle id="right_245" type="typeWE" route="right" depart="1154" />
    <vehicle id="right_246" type="typeWE" route="right" depart="1158" />
    <vehicle id="left_247" type="typeWE" route="left" depart="1165" />
    <vehicle id="left_248" type="typeWE" route="left" depart="1169" />
    <vehicle id="left_249" type="typeWE" route="left" depart="1175" />
    <vehicle id="right_250" type="typeWE" route="right" depart="1180" />
    <vehicle id="right_251" type="typeWE" route="right" depart="1182" />
    <vehicle id="right_252" type="typeWE" route="right" depart="1184" />
    <vehicle id="right_253" type="typeWE" route="right" depart="1209" />
    <vehicle id="right_254" type="typeWE" route="right" depart="1211" />
    <vehicle id="left_255" type="typeWE" route="left" depart="1213" />
    <vehicle id="left_256" type="typeWE" route="left" depart="1234" />
    <vehicle id="left_257" type="typeWE" route="left" depart="1238" />
    <vehicle id="left_258" type="typeWE" route="left" depart="1252" />
    <vehicle id="right_259" type="typeWE" route="right" depart="1255" />
    <vehicle id="right_260" type="typeEWEmerg" route="right" depart="1256" />
    <vehicle id="right_261" type="typeWE" route="right" depart="1258" />
    <vehicle id="right_262" type="typeWE" route="right" depart="1265" />
    <vehicle id="right_263" type="typeWE" route="right" depart="1271" />
    <vehicle id="down_264" type="typeNS" route="down" depart="1275" color="1,0,0"/>
    <vehicle id="right_265" type="typeWE" route="right" depart="1277" />
    <vehicle id="left_266" type="typeWE" route="left" depart="1283" />
    <vehicle id="left_267" type="typeWE" route="left" depart="1285" />
    <vehicle id="right_268" type="typeWE" route="right" depart="1294" />
    <vehicle id="right_269" type="typeWE" route="right" depart="1304" />
    <vehicle id="right_270" type="typeWE" route="right" depart="1307" />
    <vehicle id="right_271" type="typeWE" route="right" depart="1311" />
    <vehicle id="left_272" type="typeWE" route="left" depart="1311" />
    <vehicle id="right_273" type="typeWE" route="right" depart="1313" />
    <vehicle id="right_274" type="typeWE" route="right" depart="1319" />
    <vehicle id="right_275" type="typeWE" route="right" depart="1329" />
    <vehicle id="right_276" type="typeWE" route="right" depart="1330" />
    <vehicle id="right_277" type="typeWE" route="right" depart="1331" />
    <vehicle id="right_278" type="typeWE" route="right" depart="1335" />
    <vehicle id="right_279" type="typeWE" route="right" depart="1337" />
    <vehicle id="right_280" type="typeWE" route="right" depart="1342" />
    <vehicle id="left_281" type="typeWE" route="left" depart="1350" />
    <vehicle id="right_282" type="typeWE" route="right" depart="1356" />
    <vehicle id="right_283" type="typeWE" route="right" depart="1358" />
    <vehicle id="right_284" type="typeWE" route="right" depart="1375" />
    <vehicle id="left_285" type="typeWE" route="left" depart="1385" />
    <vehicle id="right_286" type="typeWE" route="right" depart="1386" />
    <vehicle id="right_287" type="typeWE" route="right" depart="1399" />
    <vehicle id="right_288" type="typeWE" route="right" depart="1400" />
    <vehicle id="right_289" type="typeWE" route="right" depart="1401" />
    <vehicle id="left_290" type="typeWE" route="left" depart="1404" />
    <vehicle id="right_291" type="typeWE" route="right" depart="1406" />
    <vehicle id="right_292" type="typeWE" route="right" depart="1407" />
    <vehicle id="left_293" type="typeWE" route="left" depart="1421" />
    <vehicle id="right_294" type="typeEWEmerg" route="right" depart="1428" />
    <vehicle id="left_295" type="typeWE" route="left" depart="1429" />
    <vehicle id="right_296" type="typeWE" route="right" depart="1430" />
    <vehicle id="right_297" type="typeWE" route="right" depart="1432" />
    <vehicle id="right_298" type="typeWE" route="right" depart="1435" />
    <vehicle id="left_299" type="typeWE" route="left" depart="1438" />
    <vehicle id="right_300" type="typeWE" route="right" depart="1440" />
    <vehicle id="left_301" type="typeWE" route="left" depart="1443" />
    <vehicle id="right_302" type="typeWE" route="right" depart="1451" />
    <vehicle id="right_303" type="typeWE" route="right" depart="1465" />
    <vehicle id="right_304" type="typeEWEmerg" route="right" depart="1469" />
    <vehicle id="left_305" type="typeWE" route="left" depart="1477" />
    <vehicle id="right_306" type="typeWE" route="right" depart="1490" />
    <vehicle id="right_307" type="typeEWEmerg" route="right" depart="1491" />
    <vehicle id="left_308" type="typeWE" route="left" depart="1495" />
    <vehicle id="left_309" type="typeWE" route="left" depart="1505" />
    <vehicle id="right_310" type="typeWE" route="right" depart="1510" />
    <vehicle id="right_311" type="typeWE" route="right" depart="1513" />
    <vehicle id="right_312" type="typeWE" route="right" depart="1515" />
    <vehicle id="left_313" type="typeWE" route="left" depart="1518" />
    <vehicle id="right_314" type="typeWE" route="right" depart="1523" />
    <vehicle id="right_315" type="typeWE" route="right" depart="1536" />
    <vehicle id="right_316" type="typeWE" route="right" depart="1571" />
    <vehicle id="right_317" type="typeWE" route="right" depart="1572" />
    <vehicle id="right_318" type="typeWE" route="right" depart="1576" />
    <vehicle id="right_319" type="typeWE" route="right" depart="1582" />
    <vehicle id="right_320" type="typeWE" route="right" depart="1586" />
    <vehicle id="right_321" type="typeWE" route="right" depart="1589" />
    <vehicle id="left_322" type="typeWE" route="left" depart="1613" />
    <vehicle id="left_323" type="typeWE" route="left" depart="1632" />
    <vehicle id="right_324" type="typeWE" route="right" depart="1637" />
    <vehicle id="left_325" type="typeWE" route="left" depart="1647" />
    <vehicle id="right_326" type="typeWE" route="right" depart="1654" />
    <vehicle id="right_327" type="typeWE" route="right" depart="1655" />
    <vehicle id="right_328" type="typeWE" route="right" depart="1657" />
    <vehicle id="right_329" type="typeWE" route="right" depart="1661" />
    <vehicle id="right_330" type="typeWE" route="right" depart="1662" />
    <vehicle id="left_331" type="typeWE" route="left" depart="1675" />
    <vehicle id="right_332" type="typeEWEmerg" route="right" depart="1683" />
    <vehicle id="right_333" type="typeWE" route="right" depart="1688" />
    <vehicle id="right_334" type="typeEWEmerg" route="right" depart="1694" />
    <vehicle id="right_335" type="typeWE" route="right" depart="1710" />
    <vehicle id="left_336" type="typeWE" route="left" depart="1710" />
    <vehicle id="right_337" type="typeWE" route="right" depart="1712" />
    <vehicle id="right_338" type="typeWE" route="right" depart="1714" />
    <vehicle id="right_339" type="typeWE" route="right" depart="1721" />
    <vehicle id="right_340" type="typeWE" route="right" depart="1724" />
    <vehicle id="right_341" type="typeWE" route="right" depart="1728" />
    <vehicle id="left_342" type="typeWE" route="left" depart="1730" />
    <vehicle id="right_343" type="typeWE" route="right" depart="1751" />
    <vehicle id="right_344" type="typeWE" route="right" depart="1752" />
    <vehicle id="right_345" type="typeWE" route="right" depart="1774" />
    <vehicle id="right_346" type="typeWE" route="right" depart="1776" />
    <vehicle id="left_347" type="typeWE" route="left" depart="1778" />
    <vehicle id="right_348" type="typeWE" route="right" depart="1783" />
    <vehicle id="left_349" type="typeWE" route="left" depart="1783" />
    <vehicle id="right_350" type="typeWE" route="right" depart="1787" />
    <vehicle id="down_351" type="typeNS" route="down" depart="1793" color="1,0,0"/>
    <vehicle id="right_352" type="typeEWEmerg" route="right" depart="1794" />
    <vehicle id="left_353" type="typeWE" route="left" depart="1797" />
    <vehicle id="right_354" type="typeWE" route="right" depart="1803" />
    <vehicle id="right_355" type="typeEWEmerg" route="right" depart="1803" />
    <vehicle id="left_356" type="typeWE" route="left" depart="1817" />
    <vehicle id="right_357" type="typeWE" route="right" depart="1822" />
    <vehicle id="right_358" type="typeWE" route="right" depart="1826" />
    <vehicle id="left_359" type="typeWE" route="left" depart="1831" />
    <vehicle id="right_360" type="typeWE" route="right" depart="1834" />
    <vehicle id="left_361" type="typeWE" route="left" depart="1836" />
    <vehicle id="right_362" type="typeWE" route="right" depart="1842" />
    <vehicle id="right_363" type="typeEWEmerg" route="right" depart="1847" />
    <vehicle id="right_364" type="typeWE" route="right" depart="1854" />
    <vehicle id="down_365" type="typeNS" route="down" depart="1854" color="1,0,0"/>
    <vehicle id="right_366" type="typeWE" route="right" depart="1858" />
    <vehicle id="left_367" type="typeWE" route="left" depart="1866" />
    <vehicle id="left_368" type="typeWE" route="left" depart="1870" />
    <vehicle id="right_369" type="typeWE" route="right" depart="1872" />
    <vehicle id="left_370" type="typeWE" route="left" depart="1889" />
    <vehicle id="right_371" type="typeWE" route="right" depart="1900" />
    <vehicle id="right_372" type="typeWE" route="right" depart="1908" />
    <vehicle id="left_373" type="typeWE" route="left" depart="1910" />
    <vehicle id="right_374" type="typeEWEmerg" route="right" depart="1913" />
    <vehicle id="left_375" type="typeWE" route="left" depart="1914" />
    <vehicle id="left_376" type="typeWE" route="left" depart="1924" />
    <vehicle id="left_377" type="typeWE" route="left" depart="1926" />
    <vehicle id="right_378" type="typeWE" route="right" depart="1928" />
    <vehicle id="left_379" type="typeWE" route="left" depart="1934" />
    <vehicle id="right_380" type="typeWE" route="right" depart="1937" />
    <vehicle id="left_381" type="typeWE" route="left" depart="1937" />
    <vehicle id="left_382" type="typeWE" route="left" depart="1956" />
    <vehicle id="left_383" type="typeWE" route="left" depart="1964" />
    <vehicle id="right_384" type="typeWE" route="right" depart="1966" />
    <vehicle id="left_385" type="typeWE" route="left" depart="1967" />
    <vehicle id="left_386" type="typeWE" route="left" depart="1970" />
    <vehicle id="right_387" type="typeWE" route="right" depart="1976" />
    <vehicle id="left_388" type="typeWE" route="left" depart="1977" />
    <vehicle id="left_389" type="typeWE" route="left" depart="1980" />
    <vehicle id="down_390" type="typeNS" route="down" depart="1995" color="1,0,0"/>
    <vehicle id="left_391" type="typeWE" route="left" depart="1999" />
    <vehicle id="left_392" type="typeWE" route="left" depart="2004" />
    <vehicle id="right_393" type="typeWE" route="right" depart="2005" />
    <vehicle id="left_394" type="typeWE" route="left" depart="2009" />
    <vehicle id="right_395" type="typeWE" route="right" depart="2015" />
    <vehicle id="left_396" type="typeWE" route="left" depart="2017" />
    <vehicle id="right_397" type="typeWE" route="right" depart="2035" />
    <vehicle id="left_398" type="typeWE" route="left" depart="2035" />
    <vehicle id="right_399" type="typeEWEmerg" route="right" depart="2054" />
    <vehicle id="right_400" type="typeWE" route="right" depart="2058" />
    <vehicle id="right_401" type="typeWE" route="right" depart="2064" />
    <vehicle id="right_402" type="typeWE" route="right" depart="2065" />
    <vehicle id="right_403" type="typeWE" route="right" depart="2068" />
    <vehicle id="left_404" type="typeWE" route="left" depart="2069" />
    <vehicle id="left_405" type="typeWE" route="left" depart="2075" />
    <vehicle id="right_406" type="typeWE" route="right" depart="2077" />
    <vehicle id="right_407" type="typeWE" route="right" depart="2086" />