<?xml version="1.0" encoding="UTF-8"?>

<!-- generated on Tue 23 Oct 2018 09:59:33 PM CDT by Netedit Version 0.32.0
<?xml version="1.0" encoding="UTF-8"?>

<configuration xmlns:xsi="http://www.w3.org/2001/XMLSchema-instance" xsi:noNamespaceSchemaLocation="http://sumo.dlr.de/xsd/netconvertConfiguration.xsd">

    <input>
        <sumo-net-file value="/home/avcourt/Documents/sumo-projects/reroute/reroute.net.xml"/>
    </input>

    <output>
        <output-file value="/home/avcourt/Documents/sumo-projects/reroute/reroute.net.xml"/>
    </output>

    <processing>
        <no-turnarounds value="true"/>
        <offset.disable-normalization value="true"/>
        <lefthand value="false"/>
        <junctions.corner-detail value="0"/>
        <rectangular-lane-cut value="false"/>
        <walkingareas value="false"/>
    </processing>

</configuration>
-->

<net version="0.27" xmlns:xsi="http://www.w3.org/2001/XMLSchema-instance" xsi:noNamespaceSchemaLocation="http://sumo.dlr.de/xsd/net_file.xsd">

    <location netOffset="0.00,0.00" convBoundary="-400.00,-200.00,300.00,400.00" origBoundary="-10000000000.00,-10000000000.00,10000000000.00,10000000000.00" projParameter="!"/>

    <edge id=":gneJ0_0" function="internal">
        <lane id=":gneJ0_0_0" index="0" speed="13.89" length="9.50" shape="-95.25,101.65 -104.75,101.65"/>
    </edge>
    <edge id=":gneJ0_1" function="internal">
        <lane id=":gneJ0_1_0" index="0" speed="13.89" length="5.28" shape="-95.25,101.65 -98.05,101.25 -100.05,100.05 -100.11,99.95"/>
    </edge>
    <edge id=":gneJ0_6" function="internal">
        <lane id=":gneJ0_6_0" index="0" speed="13.89" length="5.04" shape="-100.11,99.95 -101.25,98.05 -101.65,95.25"/>
    </edge>
    <edge id=":gneJ0_2" function="internal">
        <lane id=":gneJ0_2_0" index="0" speed="13.89" length="5.00" shape="-98.35,95.25 -98.16,96.61 -97.57,97.57 -96.61,98.16 -95.25,98.35"/>
    </edge>
    <edge id=":gneJ0_3" function="internal">
        <lane id=":gneJ0_3_0" index="0" speed="13.89" length="10.32" shape="-98.35,95.25 -98.75,98.05 -99.95,100.05 -101.95,101.25 -104.75,101.65"/>
    </edge>
    <edge id=":gneJ0_4" function="internal">
        <lane id=":gneJ0_4_0" index="0" speed="13.89" length="5.00" shape="-104.75,98.35 -103.39,98.16 -102.43,97.57 -101.84,96.61 -101.65,95.25"/>
    </edge>
    <edge id=":gneJ0_5" function="internal">
        <lane id=":gneJ0_5_0" index="0" speed="13.89" length="9.50" shape="-104.75,98.35 -95.25,98.35"/>
    </edge>
    <edge id=":gneJ1_0" function="internal">
        <lane id=":gneJ1_0_0" index="0" speed="13.89" length="5.00" shape="98.35,104.75 98.16,103.39 97.57,102.43 96.61,101.84 95.25,101.65"/>
    </edge>
    <edge id=":gneJ1_1" function="internal">
        <lane id=":gneJ1_1_0" index="0" speed="13.89" length="9.50" shape="98.35,104.75 98.35,95.25"/>
    </edge>
    <edge id=":gneJ1_2" function="internal">
        <lane id=":gneJ1_2_0" index="0" speed="13.89" length="5.28" shape="98.35,104.75 98.75,101.95 99.95,99.95 100.05,99.89"/>
    </edge>
    <edge id=":gneJ1_11" function="internal">
        <lane id=":gneJ1_11_0" index="0" speed="13.89" length="5.04" shape="100.05,99.89 101.95,98.75 104.75,98.35"/>
    </edge>
    <edge id=":gneJ1_3" function="internal">
        <lane id=":gneJ1_3_0" index="0" speed="13.89" length="5.00" shape="104.75,101.65 103.39,101.84 102.43,102.43 101.84,103.39 101.65,104.75"/>
    </edge>
    <edge id=":gneJ1_4" function="internal">
        <lane id=":gneJ1_4_0" index="0" speed="13.89" length="9.50" shape="104.75,101.65 95.25,101.65"/>
    </edge>
    <edge id=":gneJ1_5" function="internal">
        <lane id=":gneJ1_5_0" index="0" speed="13.89" length="5.28" shape="104.75,101.65 101.95,101.25 99.95,100.05 99.89,99.95"/>
    </edge>
    <edge id=":gneJ1_12" function="internal">
        <lane id=":gneJ1_12_0" index="0" speed="13.89" length="5.04" shape="99.89,99.95 98.75,98.05 98.35,95.25"/>
    </edge>
    <edge id=":gneJ1_6" function="internal">
        <lane id=":gneJ1_6_0" index="0" speed="13.89" length="5.00" shape="101.65,95.25 101.84,96.61 102.43,97.57 103.39,98.16 104.75,98.35"/>
    </edge>
    <edge id=":gneJ1_7" function="internal">
        <lane id=":gneJ1_7_0" index="0" speed="13.89" length="9.50" shape="101.65,95.25 101.65,104.75"/>
    </edge>
    <edge id=":gneJ1_8" function="internal">
        <lane id=":gneJ1_8_0" index="0" speed="13.89" length="5.28" shape="101.65,95.25 101.25,98.05 100.05,100.05 99.95,100.11"/>
    </edge>
    <edge id=":gneJ1_13" function="internal">
        <lane id=":gneJ1_13_0" index="0" speed="13.89" length="5.04" shape="99.95,100.11 98.05,101.25 95.25,101.65"/>
    </edge>
    <edge id=":gneJ1_9" function="internal">
        <lane id=":gneJ1_9_0" index="0" speed="13.89" length="5.00" shape="95.25,98.35 96.61,98.16 97.57,97.57 98.16,96.61 98.35,95.25"/>
    </edge>
    <edge id=":gneJ1_10" function="internal">
        <lane id=":gneJ1_10_0" index="0" speed="13.89" length="9.50" shape="95.25,98.35 104.75,98.35"/>
    </edge>
    <edge id=":gneJ2_0" function="internal">
        <lane id=":gneJ2_0_0" index="0" speed="13.89" length="3.30" shape="101.65,400.00 98.35,400.00"/>
    </edge>
    <edge id=":gneJ2_1" function="internal">
        <lane id=":gneJ2_1_0" index="0" speed="13.89" length="3.30" shape="101.65,400.00 98.35,400.00"/>
    </edge>
    <edge id=":gneJ3_0" function="internal">
        <lane id=":gneJ3_0_0" index="0" speed="13.89" length="3.30" shape="98.35,-100.00 101.65,-100.00"/>
    </edge>
    <edge id=":gneJ3_1" function="internal">
        <lane id=":gneJ3_1_0" index="0" speed="13.89" length="3.30" shape="98.35,-100.00 101.65,-100.00"/>
    </edge>
    <edge id=":gneJ4_0" function="internal">
        <lane id=":gneJ4_0_0" index="0" speed="13.89" length="6.60" shape="300.00,95.05 300.00,101.65"/>
    </edge>
    <edge id=":gneJ4_1" function="internal">
        <lane id=":gneJ4_1_0" index="0" speed="13.89" length="3.30" shape="300.00,98.35 300.00,101.65"/>
    </edge>
    <edge id=":gneJ5_0" function="internal">
        <lane id=":gneJ5_0_0" index="0" speed="13.89" length="6.60" shape="-400.00,101.65 -400.00,95.05"/>
    </edge>
    <edge id=":gneJ5_1" function="internal">
        <lane id=":gneJ5_1_0" index="0" speed="13.89" length="3.30" shape="-400.00,101.65 -400.00,98.35"/>
    </edge>
    <edge id=":gneJ5_2" function="internal">
        <lane id=":gneJ5_2_0" index="0" speed="13.89" length="3.30" shape="-400.00,101.65 -400.00,98.35"/>
    </edge>
    <edge id=":gneJ5_3" function="internal">
        <lane id=":gneJ5_3_0" index="0" speed="13.89" length="2.11" shape="-400.00,101.65 -401.60,100.58"/>
        <lane id=":gneJ5_3_1" index="1" speed="13.89" length="2.11" shape="-400.00,101.65 -401.24,100.82 -401.60,100.10"/>
    </edge>
    <edge id=":gneJ5_5" function="internal">
        <lane id=":gneJ5_5_0" index="0" speed="13.89" length="7.72" shape="-401.60,100.58 -402.48,100.00 -403.30,98.35 -402.48,96.70 -400.00,95.05"/>
    </edge>
    <edge id=":gneJ5_6" function="internal">
        <lane id=":gneJ5_6_0" index="0" speed="13.89" length="2.52" shape="-401.60,100.10 -401.65,100.00 -401.24,99.17 -400.00,98.35"/>
    </edge>
    <edge id=":gneJ6_0" function="internal">
        <lane id=":gneJ6_0_0" index="0" speed="13.89" length="7.90" shape="-101.65,-196.75 -101.34,-198.89 -100.43,-200.42 -98.89,-201.34 -96.75,-201.65"/>
    </edge>
    <edge id=":gneJ6_1" function="internal">
        <lane id=":gneJ6_1_0" index="0" speed="13.89" length="2.58" shape="-96.75,-198.35 -97.45,-198.25 -97.95,-197.95 -98.25,-197.45 -98.35,-196.75"/>
    </edge>
    <edge id=":gneJ7_0" function="internal">
        <lane id=":gneJ7_0_0" index="0" speed="13.89" length="2.58" shape="198.35,-196.75 198.25,-197.45 197.95,-197.95 197.45,-198.25 196.75,-198.35"/>
    </edge>
    <edge id=":gneJ7_1" function="internal">
        <lane id=":gneJ7_1_0" index="0" speed="13.89" length="7.90" shape="196.75,-201.65 198.89,-201.34 200.42,-200.43 201.34,-198.89 201.65,-196.75"/>
    </edge>

    <edge id="-gneE0" from="gneJ1" to="gneJ0" priority="1">
        <lane id="-gneE0_0" index="0" speed="13.89" length="190.50" shape="95.25,101.65 -95.25,101.65"/>
    </edge>
    <edge id="-gneE1" from="gneJ2" to="gneJ1" priority="1">
        <lane id="-gneE1_0" index="0" speed="13.89" length="295.25" shape="98.35,400.00 98.35,104.75"/>
    </edge>
    <edge id="-gneE2" from="gneJ3" to="gneJ2" priority="1">
        <lane id="-gneE2_0" index="0" speed="13.89" length="500.00" shape="101.65,-100.00 101.65,400.00"/>
    </edge>
    <edge id="-gneE3" from="gneJ1" to="gneJ3" priority="1">
        <lane id="-gneE3_0" index="0" speed="13.89" length="195.25" shape="98.35,95.25 98.35,-100.00"/>
    </edge>
    <edge id="-gneE4" from="gneJ4" to="gneJ1" priority="1">
        <lane id="-gneE4_0" index="0" speed="13.89" length="195.25" shape="300.00,101.65 104.75,101.65"/>
    </edge>
    <edge id="-gneE6" from="gneJ0" to="gneJ5" priority="1">
        <lane id="-gneE6_0" index="0" speed="13.89" length="295.25" shape="-104.75,101.65 -400.00,101.65"/>
    </edge>
    <edge id="-gneE7" from="gneJ6" to="gneJ0" priority="1">
        <lane id="-gneE7_0" index="0" speed="13.89" length="292.00" shape="-98.35,-196.75 -98.35,95.25"/>
    </edge>
    <edge id="-gneE8" from="gneJ7" to="gneJ6" priority="1">
        <lane id="-gneE8_0" index="0" speed="13.89" length="293.50" shape="196.75,-198.35 -96.75,-198.35"/>
    </edge>
    <edge id="-gneE9" from="gneJ8" to="gneJ7" priority="1">
        <lane id="-gneE9_0" index="0" speed="13.89" length="296.75" shape="198.35,100.00 198.35,-196.75"/>
    </edge>
    <edge id="e1" from="gneJ5" to="gneJ4" priority="1">
        <lane id="e1_0" index="0" speed="13.89" length="700.00" shape="-400.00,95.05 300.00,95.05"/>
        <lane id="e1_1" index="1" speed="13.89" length="700.00" shape="-400.00,98.35 300.00,98.35"/>
    </edge>
    <edge id="e2" from="gneJ1" to="gneJ4" priority="1">
        <lane id="e2_0" index="0" speed="13.89" length="195.25" shape="104.75,98.35 300.00,98.35"/>
    </edge>
    <edge id="gneE0" from="gneJ0" to="gneJ1" priority="1">
        <lane id="gneE0_0" index="0" speed="13.89" length="190.50" shape="-95.25,98.35 95.25,98.35"/>
    </edge>
    <edge id="gneE1" from="gneJ1" to="gneJ2" priority="1">
        <lane id="gneE1_0" index="0" speed="13.89" length="295.25" shape="101.65,104.75 101.65,400.00"/>
    </edge>
    <edge id="gneE2" from="gneJ2" to="gneJ3" priority="1">
        <lane id="gneE2_0" index="0" speed="13.89" length="500.00" shape="98.35,400.00 98.35,-100.00"/>
    </edge>
    <edge id="gneE3" from="gneJ3" to="gneJ1" priority="1">
        <lane id="gneE3_0" index="0" speed="13.89" length="195.25" shape="101.65,-100.00 101.65,95.25"/>
    </edge>
    <edge id="gneE5" from="gneJ4" to="gneJ5" priority="1">
        <lane id="gneE5_0" index="0" speed="13.89" length="700.00" shape="300.00,101.65 -400.00,101.65"/>
    </edge>
    <edge id="gneE6" from="gneJ5" to="gneJ0" priority="1">
        <lane id="gneE6_0" index="0" speed="13.89" length="295.25" shape="-400.00,98.35 -104.75,98.35"/>
    </edge>
    <edge id="gneE7" from="gneJ0" to="gneJ6" priority="1">
        <lane id="gneE7_0" index="0" speed="13.89" length="292.00" shape="-101.65,95.25 -101.65,-196.75"/>
    </edge>
    <edge id="gneE8" from="gneJ6" to="gneJ7" priority="1">
        <lane id="gneE8_0" index="0" speed="13.89" length="293.50" shape="-96.75,-201.65 196.75,-201.65"/>
    </edge>
    <edge id="gneE9" from="gneJ7" to="gneJ8" priority="1">
        <lane id="gneE9_0" index="0" speed="13.89" length="296.75" shape="201.65,-196.75 201.65,100.00"/>
    </edge>

    <tlLogic id="gneJ1" type="static" programID="0" offset="0">
        <phase duration="33" state="GGgrrrGGgrr"/>
        <phase duration="3" state="yygrrryygrr"/>
        <phase duration="6" state="rrGrrrrrGrr"/>
        <phase duration="3" state="rryrrrrryrr"/>
        <phase duration="33" state="rrrGGgrrrGG"/>
        <phase duration="3" state="rrryygrrryy"/>
        <phase duration="6" state="rrrrrGrrrrr"/>
        <phase duration="3" state="rrrrryrrrrr"/>
    </tlLogic>

    <junction id="gneJ0" type="priority" x="-100.00" y="100.00" incLanes="-gneE0_0 -gneE7_0 gneE6_0" intLanes=":gneJ0_0_0 :gneJ0_6_0 :gneJ0_2_0 :gneJ0_3_0 :gneJ0_4_0 :gneJ0_5_0" shape="-95.25,103.25 -95.25,96.75 -96.75,95.25 -103.25,95.25 -104.75,96.75 -104.75,103.25">
        <request index="0" response="000000" foes="001000" cont="0"/>
        <request index="1" response="110000" foes="111000" cont="1"/>
        <request index="2" response="100000" foes="100000" cont="0"/>
        <request index="3" response="100011" foes="100011" cont="0"/>
        <request index="4" response="000000" foes="000010" cont="0"/>
        <request index="5" response="000000" foes="001110" cont="0"/>
    </junction>
    <junction id="gneJ1" type="traffic_light" x="100.00" y="100.00" incLanes="-gneE1_0 -gneE4_0 gneE3_0 gneE0_0" intLanes=":gneJ1_0_0 :gneJ1_1_0 :gneJ1_11_0 :gneJ1_3_0 :gneJ1_4_0 :gneJ1_12_0 :gneJ1_6_0 :gneJ1_7_0 :gneJ1_13_0 :gneJ1_9_0 :gneJ1_10_0" shape="96.75,104.75 103.25,104.75 104.75,103.25 104.75,96.75 103.25,95.25 96.75,95.25 95.25,96.75 95.25,103.25">
        <request index="0" response="00000000000" foes="00100010000" cont="0"/>
        <request index="1" response="00000000000" foes="11100110000" cont="0"/>
        <request index="2" response="00011000000" foes="10011110000" cont="1"/>
        <request index="3" response="00010000000" foes="00010000000" cont="0"/>
        <request index="4" response="00110000111" foes="00110000111" cont="0"/>
        <request index="5" response="11110000110" foes="11110000110" cont="1"/>
        <request index="6" response="00000000000" foes="10000000100" cont="0"/>
        <request index="7" response="00000000000" foes="10000111100" cont="0"/>
        <request index="8" response="00000000011" foes="10000110011" cont="1"/>
        <request index="9" response="00000000010" foes="00000100010" cont="0"/>
        <request index="10" response="00111000110" foes="00111100110" cont="0"/>
    </junction>
    <junction id="gneJ2" type="priority" x="100.00" y="400.00" incLanes="-gneE2_0 gneE1_0" intLanes=":gneJ2_0_0 :gneJ2_1_0" shape="99.95,400.00 100.05,400.00 96.75,400.00">
        <request index="0" response="00" foes="00" cont="0"/>
        <request index="1" response="00" foes="00" cont="0"/>
    </junction>
    <junction id="gneJ3" type="priority" x="100.00" y="-100.00" incLanes="-gneE3_0 gneE2_0" intLanes=":gneJ3_0_0 :gneJ3_1_0" shape="100.05,-100.00 99.95,-100.00 103.25,-100.00">
        <request index="0" response="00" foes="00" cont="0"/>
        <request index="1" response="00" foes="00" cont="0"/>
    </junction>
    <junction id="gneJ4" type="priority" x="300.00" y="100.00" incLanes="e1_0 e1_1 e2_0" intLanes=":gneJ4_0_0 :gneJ4_1_0" shape="300.00,100.05 300.00,99.95 300.00,103.25">
        <request index="0" response="00" foes="00" cont="0"/>
        <request index="1" response="00" foes="00" cont="0"/>
    </junction>
    <junction id="gneJ5" type="priority" x="-400.00" y="100.00" incLanes="-gneE6_0 gneE5_0" intLanes=":gneJ5_0_0 :gneJ5_1_0 :gneJ5_2_0 :gneJ5_5_0 :gneJ5_6_0" shape="-400.00,99.95 -400.00,103.25 -400.00,100.05">
        <request index="0" response="00000" foes="11000" cont="0"/>
        <request index="1" response="00000" foes="11000" cont="0"/>
        <request index="2" response="00000" foes="00000" cont="0"/>
        <request index="3" response="00000" foes="00011" cont="1"/>
        <request index="4" response="00000" foes="00011" cont="1"/>
    </junction>
    <junction id="gneJ6" type="priority" x="-100.00" y="-200.00" incLanes="gneE7_0 -gneE8_0" intLanes=":gneJ6_0_0 :gneJ6_1_0" shape="-103.25,-196.75 -96.75,-196.75 -96.75,-203.25">
        <request index="0" response="00" foes="00" cont="0"/>
        <request index="1" response="00" foes="00" cont="0"/>
    </junction>
    <junction id="gneJ7" type="priority" x="200.00" y="-200.00" incLanes="-gneE9_0 gneE8_0" intLanes=":gneJ7_0_0 :gneJ7_1_0" shape="196.75,-196.75 203.25,-196.75 196.75,-203.25">
        <request index="0" response="00" foes="00" cont="0"/>
        <request index="1" response="00" foes="00" cont="0"/>
    </junction>
    <junction id="gneJ8" type="dead_end" x="200.00" y="100.00" incLanes="gneE9_0" intLanes="" shape="199.95,100.00 203.25,100.00 200.05,100.00"/>

    <junction id=":gneJ0_6_0" type="internal" x="-100.11" y="99.95" incLanes=":gneJ0_1_0 gneE6_0" intLanes=":gneJ0_3_0 :gneJ0_4_0 :gneJ0_5_0"/>
    <junction id=":gneJ1_11_0" type="internal" x="100.05" y="99.89" incLanes=":gneJ1_2_0 gneE3_0" intLanes=":gneJ1_4_0 :gneJ1_5_0 :gneJ1_6_0 :gneJ1_7_0 :gneJ1_10_0"/>
    <junction id=":gneJ1_12_0" type="internal" x="99.89" y="99.95" incLanes=":gneJ1_5_0 gneE0_0" intLanes=":gneJ1_1_0 :gneJ1_2_0 :gneJ1_7_0 :gneJ1_8_0 :gneJ1_9_0 :gneJ1_10_0"/>
    <junction id=":gneJ1_13_0" type="internal" x="99.95" y="100.11" incLanes=":gneJ1_8_0 -gneE1_0" intLanes=":gneJ1_0_0 :gneJ1_1_0 :gneJ1_4_0 :gneJ1_5_0 :gneJ1_10_0"/>
    <junction id=":gneJ5_5_0" type="internal" x="-401.60" y="100.58" incLanes=":gneJ5_3_0 -gneE6_0" intLanes=":gneJ5_0_0 :gneJ5_1_0"/>
    <junction id=":gneJ5_6_0" type="internal" x="-401.60" y="100.10" incLanes=":gneJ5_3_1 -gneE6_0" intLanes=":gneJ5_0_0 :gneJ5_1_0"/>

    <connection from="-gneE0" to="-gneE6" fromLane="0" toLane="0" via=":gneJ0_0_0" dir="s" state="M"/>
    <connection from="-gneE0" to="gneE7" fromLane="0" toLane="0" via=":gneJ0_1_0" dir="l" state="m"/>
    <connection from="-gneE1" to="-gneE0" fromLane="0" toLane="0" via=":gneJ1_0_0" tl="gneJ1" linkIndex="0" dir="r" state="o"/>
    <connection from="-gneE1" to="-gneE3" fromLane="0" toLane="0" via=":gneJ1_1_0" tl="gneJ1" linkIndex="1" dir="s" state="o"/>
    <connection from="-gneE1" to="e2" fromLane="0" toLane="0" via=":gneJ1_2_0" tl="gneJ1" linkIndex="2" dir="l" state="o"/>
    <connection from="-gneE2" to="-gneE1" fromLane="0" toLane="0" via=":gneJ2_0_0" dir="l" state="M"/>
    <connection from="-gneE3" to="-gneE2" fromLane="0" toLane="0" via=":gneJ3_0_0" dir="l" state="M"/>
    <connection from="-gneE4" to="gneE1" fromLane="0" toLane="0" via=":gneJ1_3_0" tl="gneJ1" linkIndex="3" dir="r" state="o"/>
    <connection from="-gneE4" to="-gneE0" fromLane="0" toLane="0" via=":gneJ1_4_0" tl="gneJ1" linkIndex="4" dir="s" state="o"/>
    <connection from="-gneE4" to="-gneE3" fromLane="0" toLane="0" via=":gneJ1_5_0" tl="gneJ1" linkIndex="5" dir="l" state="o"/>
    <connection from="-gneE6" to="e1" fromLane="0" toLane="0" via=":gneJ5_0_0" dir="l" state="M"/>
    <connection from="-gneE6" to="e1" fromLane="0" toLane="1" via=":gneJ5_1_0" dir="l" state="M"/>
    <connection from="-gneE7" to="gneE0" fromLane="0" toLane="0" via=":gneJ0_2_0" dir="r" state="m"/>
    <connection from="-gneE7" to="-gneE6" fromLane="0" toLane="0" via=":gneJ0_3_0" dir="l" state="m"/>
    <connection from="-gneE8" to="-gneE7" fromLane="0" toLane="0" via=":gneJ6_1_0" dir="r" state="M"/>
    <connection from="-gneE9" to="-gneE8" fromLane="0" toLane="0" via=":gneJ7_0_0" dir="r" state="M"/>
    <connection from="e1" to="-gneE4" fromLane="0" toLane="0" via=":gneJ4_0_0" dir="l" state="M"/>
    <connection from="e2" to="gneE5" fromLane="0" toLane="0" via=":gneJ4_1_0" dir="l" state="M"/>
    <connection from="gneE0" to="-gneE3" fromLane="0" toLane="0" via=":gneJ1_9_0" tl="gneJ1" linkIndex="9" dir="r" state="o"/>
    <connection from="gneE0" to="e2" fromLane="0" toLane="0" via=":gneJ1_10_0" tl="gneJ1" linkIndex="10" dir="s" state="o"/>
    <connection from="gneE1" to="gneE2" fromLane="0" toLane="0" via=":gneJ2_1_0" dir="l" state="M"/>
    <connection from="gneE2" to="gneE3" fromLane="0" toLane="0" via=":gneJ3_1_0" dir="l" state="M"/>
    <connection from="gneE3" to="e2" fromLane="0" toLane="0" via=":gneJ1_6_0" tl="gneJ1" linkIndex="6" dir="r" state="o"/>
    <connection from="gneE3" to="gneE1" fromLane="0" toLane="0" via=":gneJ1_7_0" tl="gneJ1" linkIndex="7" dir="s" state="o"/>
    <connection from="gneE3" to="-gneE0" fromLane="0" toLane="0" via=":gneJ1_8_0" tl="gneJ1" linkIndex="8" dir="l" state="o"/>
    <connection from="gneE5" to="gneE6" fromLane="0" toLane="0" via=":gneJ5_2_0" dir="l" state="M"/>
    <connection from="gneE5" to="e1" fromLane="0" toLane="0" pass="1" via=":gneJ5_3_0" dir="t" state="M"/>
    <connection from="gneE5" to="e1" fromLane="0" toLane="1" pass="1" via=":gneJ5_3_1" dir="t" state="M"/>
    <connection from="gneE6" to="gneE7" fromLane="0" toLane="0" via=":gneJ0_4_0" dir="r" state="M"/>
    <connection from="gneE6" to="gneE0" fromLane="0" toLane="0" via=":gneJ0_5_0" dir="s" state="M"/>
    <connection from="gneE7" to="gneE8" fromLane="0" toLane="0" via=":gneJ6_0_0" dir="l" state="M"/>
    <connection from="gneE8" to="gneE9" fromLane="0" toLane="0" via=":gneJ7_1_0" dir="l" state="M"/>

    <connection from=":gneJ0_0" to="-gneE6" fromLane="0" toLane="0" dir="s" state="M"/>
    <connection from=":gneJ0_1" to="gneE7" fromLane="0" toLane="0" via=":gneJ0_6_0" dir="l" state="m"/>
    <connection from=":gneJ0_6" to="gneE7" fromLane="0" toLane="0" dir="l" state="M"/>
    <connection from=":gneJ0_2" to="gneE0" fromLane="0" toLane="0" dir="r" state="M"/>
    <connection from=":gneJ0_3" to="-gneE6" fromLane="0" toLane="0" dir="l" state="M"/>
    <connection from=":gneJ0_4" to="gneE7" fromLane="0" toLane="0" dir="r" state="M"/>
    <connection from=":gneJ0_5" to="gneE0" fromLane="0" toLane="0" dir="s" state="M"/>
    <connection from=":gneJ1_0" to="-gneE0" fromLane="0" toLane="0" dir="r" state="M"/>
    <connection from=":gneJ1_1" to="-gneE3" fromLane="0" toLane="0" dir="s" state="M"/>
    <connection from=":gneJ1_2" to="e2" fromLane="0" toLane="0" via=":gneJ1_11_0" dir="l" state="m"/>
    <connection from=":gneJ1_11" to="e2" fromLane="0" toLane="0" dir="l" state="M"/>
    <connection from=":gneJ1_3" to="gneE1" fromLane="0" toLane="0" dir="r" state="M"/>
    <connection from=":gneJ1_4" to="-gneE0" fromLane="0" toLane="0" dir="s" state="M"/>
    <connection from=":gneJ1_5" to="-gneE3" fromLane="0" toLane="0" via=":gneJ1_12_0" dir="l" state="m"/>
    <connection from=":gneJ1_12" to="-gneE3" fromLane="0" toLane="0" dir="l" state="M"/>
    <connection from=":gneJ1_6" to="e2" fromLane="0" toLane="0" dir="r" state="M"/>
    <connection from=":gneJ1_7" to="gneE1" fromLane="0" toLane="0" dir="s" state="M"/>
    <connection from=":gneJ1_8" to="-gneE0" fromLane="0" toLane="0" via=":gneJ1_13_0" dir="l" state="m"/>
    <connection from=":gneJ1_13" to="-gneE0" fromLane="0" toLane="0" dir="l" state="M"/>
    <connection from=":gneJ1_9" to="-gneE3" fromLane="0" toLane="0" dir="r" state="M"/>
    <connection from=":gneJ1_10" to="e2" fromLane="0" toLane="0" dir="s" state="M"/>
    <connection from=":gneJ2_0" to="-gneE1" fromLane="0" toLane="0" dir="l" state="M"/>
    <connection from=":gneJ2_1" to="gneE2" fromLane="0" toLane="0" dir="l" state="M"/>
    <connection from=":gneJ3_0" to="-gneE2" fromLane="0" toLane="0" dir="l" state="M"/>
    <connection from=":gneJ3_1" to="gneE3" fromLane="0" toLane="0" dir="l" state="M"/>
    <connection from=":gneJ4_0" to="-gneE4" fromLane="0" toLane="0" dir="l" state="M"/>
    <connection from=":gneJ4_1" to="gneE5" fromLane="0" toLane="0" dir="l" state="M"/>
    <connection from=":gneJ5_0" to="e1" fromLane="0" toLane="0" dir="l" state="M"/>
    <connection from=":gneJ5_1" to="e1" fromLane="0" toLane="1" dir="l" state="M"/>
    <connection from=":gneJ5_2" to="gneE6" fromLane="0" toLane="0" dir="l" state="M"/>
    <connection from=":gneJ5_3" to="e1" fromLane="0" toLane="0" via=":gneJ5_5_0" dir="t" state="m"/>
    <connection from=":gneJ5_5" to="e1" fromLane="0" toLane="0" dir="t" state="M"/>
    <connection from=":gneJ5_3" to="e1" fromLane="1" toLane="1" via=":gneJ5_6_0" dir="t" state="m"/>
    <connection from=":gneJ5_6" to="e1" fromLane="0" toLane="1" dir="t" state="M"/>
    <connection from=":gneJ6_0" to="gneE8" fromLane="0" toLane="0" dir="l" state="M"/>
    <connection from=":gneJ6_1" to="-gneE7" fromLane="0" toLane="0" dir="r" state="M"/>
    <connection from=":gneJ7_0" to="-gneE8" fromLane="0" toLane="0" dir="r" state="M"/>
    <connection from=":gneJ7_1" to="gneE9" fromLane="0" toLane="0" dir="l" state="M"/>

</net>
