<?xml version="1.0" encoding="UTF-8"?>

<!-- generated on Tue Sep 18 19:36:19 2018 by SUMO netconvert Version 0.32.0
<?xml version="1.0" encoding="UTF-8"?>

<configuration xmlns:xsi="http://www.w3.org/2001/XMLSchema-instance" xsi:noNamespaceSchemaLocation="http://sumo.dlr.de/xsd/netconvertConfiguration.xsd">

    <input>
        <node-files value="nodes.nod.xml"/>
        <edge-files value="edges.edg.xml"/>
        <type-files value="types.type.xml"/>
    </input>

    <output>
        <output-file value="network.net.xml"/>
    </output>

</configuration>
-->

<net version="0.27" xmlns:xsi="http://www.w3.org/2001/XMLSchema-instance" xsi:noNamespaceSchemaLocation="http://sumo.dlr.de/xsd/net_file.xsd">

    <location netOffset="500.00,0.00" convBoundary="0.00,0.00,650.00,200.00" origBoundary="-500.00,0.00,150.00,200.00" projParameter="!"/>

    <type id="2L15" priority="3" numLanes="2" speed="15.00"/>
    <type id="3L30" priority="2" numLanes="3" speed="30.00"/>
    <type id="3L45" priority="3" numLanes="3" speed="45.00"/>

    <edge id=":n2_0" function="internal">
        <lane id=":n2_0_0" index="0" speed="30.00" length="10.32" shape="248.55,-4.95 251.35,-4.55 253.35,-3.35 254.55,-1.35 254.95,1.45"/>
    </edge>
    <edge id=":n2_1" function="internal">
        <lane id=":n2_1_0" index="0" speed="30.00" length="5.00" shape="248.55,-1.65 249.91,-1.46 250.88,-0.87 251.46,0.09 251.65,1.45"/>
    </edge>
    <edge id=":n3_0" function="internal">
        <lane id=":n3_0_0" index="0" speed="22.50" length="6.23" shape="254.95,180.65 255.19,182.57 255.89,183.51 257.07,183.48 258.72,182.46"/>
    </edge>
    <edge id=":n3_1" function="internal">
        <lane id=":n3_1_0" index="0" speed="22.50" length="10.71" shape="254.95,180.65 255.31,184.32 256.41,186.27 258.23,186.51 260.78,185.04"/>
    </edge>
    <edge id=":n3_2" function="internal">
        <lane id=":n3_2_0" index="0" speed="22.50" length="19.56" shape="251.65,180.65 252.35,187.05 254.45,190.35 257.95,190.53 262.84,187.61"/>
    </edge>
    <edge id=":n4_0" function="internal">
        <lane id=":n4_0_0" index="0" speed="30.00" length="13.53" shape="494.89,-6.47 498.09,-8.36 501.11,-8.75 503.94,-7.62 506.57,-4.99"/>
    </edge>
    <edge id=":n4_1" function="internal">
        <lane id=":n4_1_0" index="0" speed="30.00" length="8.08" shape="496.95,-3.90 498.86,-5.03 500.67,-5.26 502.36,-4.58 503.93,-3.01"/>
    </edge>
    <edge id=":n4_2" function="internal">
        <lane id=":n4_2_0" index="0" speed="30.00" length="2.64" shape="499.01,-1.32 499.64,-1.69 500.22,-1.76 500.78,-1.54 501.29,-1.03"/>
    </edge>

    <edge id="1to2" from="n1" to="n2" priority="3" type="3L45">
        <lane id="1to2_0" index="0" speed="45.00" length="248.55" shape="0.00,-8.25 248.55,-8.25"/>
        <lane id="1to2_1" index="1" speed="45.00" length="248.55" shape="0.00,-4.95 248.55,-4.95"/>
        <lane id="1to2_2" index="2" speed="45.00" length="248.55" shape="0.00,-1.65 248.55,-1.65"/>
    </edge>
    <edge id="2to3" from="n2" to="n3" priority="3" type="2L15">
        <lane id="2to3_0" index="0" speed="15.00" length="179.20" shape="254.95,1.45 254.95,180.65"/>
        <lane id="2to3_1" index="1" speed="15.00" length="179.20" shape="251.65,1.45 251.65,180.65"/>
    </edge>
    <edge id="3to4" from="n3" to="n4" priority="2" type="3L30">
        <lane id="3to4_0" index="0" speed="30.00" length="302.44" shape="258.72,182.46 494.89,-6.47"/>
        <lane id="3to4_1" index="1" speed="30.00" length="302.44" shape="260.78,185.04 496.95,-3.90"/>
        <lane id="3to4_2" index="2" speed="30.00" length="302.44" shape="262.84,187.61 499.01,-1.32"/>
    </edge>
    <edge id="out" from="n4" to="n5" priority="2" type="3L30">
        <lane id="out_0" index="0" speed="30.00" length="250.05" shape="506.57,-4.99 656.60,195.05"/>
        <lane id="out_1" index="1" speed="30.00" length="250.05" shape="503.93,-3.01 653.96,197.03"/>
        <lane id="out_2" index="2" speed="30.00" length="250.05" shape="501.29,-1.03 651.32,199.01"/>
    </edge>

    <tlLogic id="n2" type="static" programID="0" offset="0">
        <phase duration="76" state="GG"/>
        <phase duration="9" state="yy"/>
        <phase duration="5" state="rr"/>
    </tlLogic>
    <tlLogic id="n3" type="static" programID="0" offset="0">
        <phase duration="82" state="GGG"/>
        <phase duration="3" state="yyy"/>
        <phase duration="5" state="rrr"/>
    </tlLogic>

    <junction id="n1" type="dead_end" x="0.00" y="0.00" incLanes="" intLanes="" shape="0.00,-0.05 0.00,-9.85"/>
    <junction id="n2" type="traffic_light" x="250.00" y="0.00" incLanes="1to2_0 1to2_1 1to2_2" intLanes=":n2_0_0 :n2_1_0" shape="250.05,1.45 256.55,1.45 248.55,-9.85 248.55,-0.05">
        <request index="0" response="00" foes="00" cont="0"/>
        <request index="1" response="00" foes="00" cont="0"/>
    </junction>
    <junction id="n3" type="traffic_light" x="250.00" y="200.00" incLanes="2to3_0 2to3_1" intLanes=":n3_0_0 :n3_1_0 :n3_2_0" shape="263.84,188.86 257.72,181.21 256.55,180.65 250.05,180.65">
        <request index="0" response="000" foes="000" cont="0"/>
        <request index="1" response="000" foes="000" cont="0"/>
        <request index="2" response="000" foes="000" cont="0"/>
    </junction>
    <junction id="n4" type="priority" x="500.00" y="0.00" incLanes="3to4_0 3to4_1 3to4_2" intLanes=":n4_0_0 :n4_1_0 :n4_2_0" shape="500.01,-0.07 507.85,-5.95 493.89,-7.72">
        <request index="0" response="000" foes="000" cont="0"/>
        <request index="1" response="000" foes="000" cont="0"/>
        <request index="2" response="000" foes="000" cont="0"/>
    </junction>
    <junction id="n5" type="dead_end" x="650.00" y="200.00" incLanes="out_0 out_1 out_2" intLanes="" shape="657.88,194.09 650.04,199.97"/>

    <connection from="1to2" to="2to3" fromLane="1" toLane="0" via=":n2_0_0" tl="n2" linkIndex="0" dir="l" state="o"/>
    <connection from="1to2" to="2to3" fromLane="2" toLane="1" via=":n2_1_0" tl="n2" linkIndex="1" dir="l" state="o"/>
    <connection from="2to3" to="3to4" fromLane="0" toLane="0" via=":n3_0_0" tl="n3" linkIndex="0" dir="r" state="o"/>
    <connection from="2to3" to="3to4" fromLane="0" toLane="1" via=":n3_1_0" tl="n3" linkIndex="1" dir="r" state="o"/>
    <connection from="2to3" to="3to4" fromLane="1" toLane="2" via=":n3_2_0" tl="n3" linkIndex="2" dir="r" state="o"/>
    <connection from="3to4" to="out" fromLane="0" toLane="0" via=":n4_0_0" dir="l" state="M"/>
    <connection from="3to4" to="out" fromLane="1" toLane="1" via=":n4_1_0" dir="l" state="M"/>
    <connection from="3to4" to="out" fromLane="2" toLane="2" via=":n4_2_0" dir="l" state="M"/>

    <connection from=":n2_0" to="2to3" fromLane="0" toLane="0" dir="l" state="M"/>
    <connection from=":n2_1" to="2to3" fromLane="0" toLane="1" dir="l" state="M"/>
    <connection from=":n3_0" to="3to4" fromLane="0" toLane="0" dir="r" state="M"/>
    <connection from=":n3_1" to="3to4" fromLane="0" toLane="1" dir="r" state="M"/>
    <connection from=":n3_2" to="3to4" fromLane="0" toLane="2" dir="r" state="M"/>
    <connection from=":n4_0" to="out" fromLane="0" toLane="0" dir="l" state="M"/>
    <connection from=":n4_1" to="out" fromLane="0" toLane="1" dir="l" state="M"/>
    <connection from=":n4_2" to="out" fromLane="0" toLane="2" dir="l" state="M"/>

</net>
