<configuration>
	<input>
		<net-file value="osm_net.net.xml" />
		<route-files value="osm.rou.xml" />
	</input>

	<time>
		<begin value="0" />
		<end value="2000" />
	</time>
	
</configuration>
