<?xml version="1.0" encoding="UTF-8"?>
<!-- generated on 2018-09-18 20:10:48.878973 by $Id$
  options: -n osm_net.net.xml -r osm.rou.xml -e 50 -l
-->
<routes xmlns:xsi="http://www.w3.org/2001/XMLSchema-instance" xsi:noNamespaceSchemaLocation="http://sumo.dlr.de/xsd/routes_file.xsd">
    <trip id="0" depart="0.00" from="130655041" to="130655072"/>
    <trip id="1" depart="1.00" from="30906153#10" to="-37926830"/>
    <trip id="2" depart="2.00" from="179486236#5" to="-53883767"/>
    <trip id="3" depart="3.00" from="-130655214#3" to="154372740"/>
    <trip id="4" depart="4.00" from="-37891601" to="-109388935#13"/>
    <trip id="5" depart="5.00" from="-130655106#1" to="-109237755#3"/>
    <trip id="6" depart="6.00" from="37913544#2" to="-109237755#7"/>
    <trip id="7" depart="7.00" from="-37926830" to="448744028#2"/>
    <trip id="8" depart="8.00" from="-448744028#3" to="-39497558#3"/>
    <trip id="9" depart="9.00" from="137914605#3" to="130655092"/>
    <trip id="10" depart="10.00" from="130655214#3" to="109388935#3"/>
    <trip id="11" depart="11.00" from="4489055" to="60428232#1"/>
    <trip id="12" depart="12.00" from="473578321#0" to="30734866#5"/>
    <trip id="13" depart="13.00" from="38062349#0" to="-37891579#2"/>
    <trip id="14" depart="14.00" from="-130655275#3" to="130655233#2"/>
    <trip id="15" depart="15.00" from="-37912528" to="179486236#2"/>
    <trip id="16" depart="16.00" from="66703427" to="-109388935#7"/>
    <trip id="17" depart="17.00" from="41141320" to="13787894#1"/>
    <trip id="18" depart="18.00" from="58868076" to="13788701#0"/>
    <trip id="19" depart="19.00" from="-39501878#1" to="37912450"/>
    <trip id="20" depart="20.00" from="130655292" to="-203537814#9"/>
    <trip id="21" depart="21.00" from="53883767" to="130655256#8"/>
    <trip id="22" depart="22.00" from="130655129#1" to="-130655287#1"/>
    <trip id="23" depart="23.00" from="137914605#3" to="109237755#16"/>
    <trip id="24" depart="24.00" from="130655336" to="-37891523#1"/>
    <trip id="25" depart="25.00" from="-60428232#1" to="37891524#0"/>
    <trip id="26" depart="26.00" from="37891582#1" to="39497329#2"/>
    <trip id="27" depart="27.00" from="473587727#3" to="109237755#17"/>
    <trip id="28" depart="28.00" from="436149145#1" to="130655214#4"/>
    <trip id="29" depart="29.00" from="-37913037#1" to="-109388935#0"/>
    <trip id="30" depart="30.00" from="130655299" to="-137914605#3"/>
    <trip id="31" depart="31.00" from="53883767" to="-37912333#1"/>
    <trip id="32" depart="32.00" from="519138392#6" to="-109388935#12"/>
    <trip id="33" depart="33.00" from="172706155#5" to="130655106#1"/>
    <trip id="34" depart="34.00" from="37891524#3" to="-109237755#4"/>
    <trip id="35" depart="35.00" from="-203537814#12" to="473578226"/>
    <trip id="36" depart="36.00" from="-25169185#5" to="61727235"/>
    <trip id="37" depart="37.00" from="130655171#0" to="39497861#0"/>
    <trip id="38" depart="38.00" from="109237755#11" to="-154627455#2"/>
    <trip id="39" depart="39.00" from="-37913544#4" to="40997454#0"/>
    <trip id="40" depart="40.00" from="39497773#2" to="109237755#11"/>
    <trip id="41" depart="41.00" from="37926828#0" to="130655287#0"/>
    <trip id="42" depart="42.00" from="-309356950#1" to="-130655118"/>
    <trip id="43" depart="43.00" from="30906153#12" to="30906153#10"/>
    <trip id="44" depart="44.00" from="154602293#3" to="448740481#0"/>
    <trip id="45" depart="45.00" from="-130655072" to="-32942266"/>
    <trip id="46" depart="46.00" from="544706499" to="39501878#1"/>
    <trip id="47" depart="47.00" from="-109388935#9" to="30734866#3"/>
    <trip id="48" depart="48.00" from="37926828#0" to="103024537#1"/>
    <trip id="49" depart="49.00" from="-137914605#3" to="100763218#2"/>
</routes>
