<?xml version="1.0" encoding="UTF-8"?>

<!-- generated on Tue 16 Oct 2018 07:13:29 PM CDT by Netedit Version 0.32.0
<?xml version="1.0" encoding="UTF-8"?>

<configuration xmlns:xsi="http://www.w3.org/2001/XMLSchema-instance" xsi:noNamespaceSchemaLocation="http://sumo.dlr.de/xsd/netconvertConfiguration.xsd">

    <output>
        <output-file value="/home/avcourt/Documents/sumo-projects/rail_crossing/rail_x.net.xml"/>
    </output>

    <processing>
        <no-turnarounds value="true"/>
        <offset.disable-normalization value="true"/>
    </processing>

</configuration>
-->

<net version="0.27" xmlns:xsi="http://www.w3.org/2001/XMLSchema-instance" xsi:noNamespaceSchemaLocation="http://sumo.dlr.de/xsd/net_file.xsd">

    <location netOffset="0.00,0.00" convBoundary="-100.00,-100.00,300.00,300.00" origBoundary="10000000000.00,10000000000.00,-10000000000.00,-10000000000.00" projParameter="!"/>

    <edge id=":gneJ8_0" function="internal">
        <lane id=":gneJ8_0_0" index="0" speed="13.89" length="5.00" shape="98.35,104.75 98.16,103.39 97.57,102.43 96.61,101.84 95.25,101.65"/>
    </edge>
    <edge id=":gneJ8_1" function="internal">
        <lane id=":gneJ8_1_0" index="0" allow="rail" speed="13.89" length="9.50" shape="98.35,104.75 98.35,95.25"/>
    </edge>
    <edge id=":gneJ8_2" function="internal">
        <lane id=":gneJ8_2_0" index="0" speed="13.89" length="10.32" shape="98.35,104.75 98.75,101.95 99.95,99.95 101.95,98.75 104.75,98.35"/>
    </edge>
    <edge id=":gneJ8_3" function="internal">
        <lane id=":gneJ8_3_0" index="0" allow="rail" speed="13.89" length="5.00" shape="104.75,101.65 103.39,101.84 102.43,102.43 101.84,103.39 101.65,104.75"/>
    </edge>
    <edge id=":gneJ8_4" function="internal">
        <lane id=":gneJ8_4_0" index="0" speed="13.89" length="9.50" shape="104.75,101.65 95.25,101.65"/>
    </edge>
    <edge id=":gneJ8_5" function="internal">
        <lane id=":gneJ8_5_0" index="0" allow="rail" speed="13.89" length="10.32" shape="104.75,101.65 101.95,101.25 99.95,100.05 98.75,98.05 98.35,95.25"/>
    </edge>
    <edge id=":gneJ8_6" function="internal">
        <lane id=":gneJ8_6_0" index="0" speed="13.89" length="5.00" shape="101.65,95.25 101.84,96.61 102.43,97.57 103.39,98.16 104.75,98.35"/>
    </edge>
    <edge id=":gneJ8_7" function="internal">
        <lane id=":gneJ8_7_0" index="0" allow="rail" speed="13.89" length="9.50" shape="101.65,95.25 101.65,104.75"/>
    </edge>
    <edge id=":gneJ8_8" function="internal">
        <lane id=":gneJ8_8_0" index="0" speed="13.89" length="10.32" shape="101.65,95.25 101.25,98.05 100.05,100.05 98.05,101.25 95.25,101.65"/>
    </edge>
    <edge id=":gneJ8_9" function="internal">
        <lane id=":gneJ8_9_0" index="0" allow="rail" speed="13.89" length="5.00" shape="95.25,98.35 96.61,98.16 97.57,97.57 98.16,96.61 98.35,95.25"/>
    </edge>
    <edge id=":gneJ8_10" function="internal">
        <lane id=":gneJ8_10_0" index="0" speed="13.89" length="9.50" shape="95.25,98.35 104.75,98.35"/>
    </edge>
    <edge id=":gneJ8_11" function="internal">
        <lane id=":gneJ8_11_0" index="0" allow="rail" speed="13.89" length="10.32" shape="95.25,98.35 98.05,98.75 100.05,99.95 101.25,101.95 101.65,104.75"/>
    </edge>

    <edge id="-gneE6" from="gneJ8" to="gneJ7" priority="1">
        <lane id="-gneE6_0" index="0" speed="13.89" length="195.25" shape="95.25,101.65 -100.00,101.65"/>
    </edge>
    <edge id="-gneE7" from="gneJ8" to="gneJ9" priority="1">
        <lane id="-gneE7_0" index="0" speed="13.89" length="195.25" shape="104.75,98.35 300.00,98.35"/>
    </edge>
    <edge id="-gneE8" from="gneJ8" to="gneJ10" priority="1">
        <lane id="-gneE8_0" index="0" allow="rail" speed="13.89" length="195.25" shape="101.65,104.75 101.65,300.00"/>
    </edge>
    <edge id="-gneE9" from="gneJ8" to="gneJ11" priority="1">
        <lane id="-gneE9_0" index="0" allow="rail" speed="13.89" length="195.25" shape="98.35,95.25 98.35,-100.00"/>
    </edge>
    <edge id="gneE6" from="gneJ7" to="gneJ8" priority="1">
        <lane id="gneE6_0" index="0" speed="13.89" length="195.25" shape="-100.00,98.35 95.25,98.35"/>
    </edge>
    <edge id="gneE7" from="gneJ9" to="gneJ8" priority="1">
        <lane id="gneE7_0" index="0" speed="13.89" length="195.25" shape="300.00,101.65 104.75,101.65"/>
    </edge>
    <edge id="gneE8" from="gneJ10" to="gneJ8" priority="1">
        <lane id="gneE8_0" index="0" allow="rail" speed="13.89" length="195.25" shape="98.35,300.00 98.35,104.75"/>
    </edge>
    <edge id="gneE9" from="gneJ11" to="gneJ8" priority="1">
        <lane id="gneE9_0" index="0" allow="rail" speed="13.89" length="195.25" shape="101.65,-100.00 101.65,95.25"/>
    </edge>

    <junction id="gneJ10" type="dead_end" x="100.00" y="300.00" incLanes="-gneE8_0" intLanes="" shape="99.95,300.00 103.25,300.00 100.05,300.00"/>
    <junction id="gneJ11" type="dead_end" x="100.00" y="-100.00" incLanes="-gneE9_0" intLanes="" shape="100.05,-100.00 96.75,-100.00 99.95,-100.00"/>
    <junction id="gneJ7" type="dead_end" x="-100.00" y="100.00" incLanes="-gneE6_0" intLanes="" shape="-100.00,99.95 -100.00,103.25 -100.00,100.05"/>
    <junction id="gneJ8" type="rail_signal" x="100.00" y="100.00" incLanes="gneE8_0 gneE7_0 gneE9_0 gneE6_0" intLanes=":gneJ8_0_0 :gneJ8_1_0 :gneJ8_2_0 :gneJ8_3_0 :gneJ8_4_0 :gneJ8_5_0 :gneJ8_6_0 :gneJ8_7_0 :gneJ8_8_0 :gneJ8_9_0 :gneJ8_10_0 :gneJ8_11_0" shape="96.75,104.75 103.25,104.75 104.75,103.25 104.75,96.75 103.25,95.25 96.75,95.25 95.25,96.75 95.25,103.25">
        <request index="0" response="000000000000" foes="000100010000" cont="0"/>
        <request index="1" response="000000000000" foes="111100110000" cont="0"/>
        <request index="2" response="000011000000" foes="110011110000" cont="0"/>
        <request index="3" response="000010000000" foes="100010000000" cont="0"/>
        <request index="4" response="000110000111" foes="100110000111" cont="0"/>
        <request index="5" response="011110000110" foes="011110000110" cont="0"/>
        <request index="6" response="000000000000" foes="010000000100" cont="0"/>
        <request index="7" response="000000000000" foes="110000111100" cont="0"/>
        <request index="8" response="000000000011" foes="110000110011" cont="0"/>
        <request index="9" response="000000000010" foes="000000100010" cont="0"/>
        <request index="10" response="000111000110" foes="000111100110" cont="0"/>
        <request index="11" response="000110011110" foes="000110011110" cont="0"/>
    </junction>
    <junction id="gneJ9" type="dead_end" x="300.00" y="100.00" incLanes="-gneE7_0" intLanes="" shape="300.00,100.05 300.00,96.75 300.00,99.95"/>

    <connection from="gneE6" to="-gneE9" fromLane="0" toLane="0" via=":gneJ8_9_0" tl="gneJ8" linkIndex="9" dir="r" state="o"/>
    <connection from="gneE6" to="-gneE7" fromLane="0" toLane="0" via=":gneJ8_10_0" tl="gneJ8" linkIndex="10" dir="s" state="o"/>
    <connection from="gneE6" to="-gneE8" fromLane="0" toLane="0" via=":gneJ8_11_0" tl="gneJ8" linkIndex="11" dir="l" state="o"/>
    <connection from="gneE7" to="-gneE8" fromLane="0" toLane="0" via=":gneJ8_3_0" tl="gneJ8" linkIndex="3" dir="r" state="o"/>
    <connection from="gneE7" to="-gneE6" fromLane="0" toLane="0" via=":gneJ8_4_0" tl="gneJ8" linkIndex="4" dir="s" state="o"/>
    <connection from="gneE7" to="-gneE9" fromLane="0" toLane="0" via=":gneJ8_5_0" tl="gneJ8" linkIndex="5" dir="l" state="o"/>
    <connection from="gneE8" to="-gneE6" fromLane="0" toLane="0" via=":gneJ8_0_0" tl="gneJ8" linkIndex="0" dir="r" state="o"/>
    <connection from="gneE8" to="-gneE9" fromLane="0" toLane="0" via=":gneJ8_1_0" tl="gneJ8" linkIndex="1" dir="s" state="o"/>
    <connection from="gneE8" to="-gneE7" fromLane="0" toLane="0" via=":gneJ8_2_0" tl="gneJ8" linkIndex="2" dir="l" state="o"/>
    <connection from="gneE9" to="-gneE7" fromLane="0" toLane="0" via=":gneJ8_6_0" tl="gneJ8" linkIndex="6" dir="r" state="o"/>
    <connection from="gneE9" to="-gneE8" fromLane="0" toLane="0" via=":gneJ8_7_0" tl="gneJ8" linkIndex="7" dir="s" state="o"/>
    <connection from="gneE9" to="-gneE6" fromLane="0" toLane="0" via=":gneJ8_8_0" tl="gneJ8" linkIndex="8" dir="l" state="o"/>

    <connection from=":gneJ8_0" to="-gneE6" fromLane="0" toLane="0" dir="r" state="M"/>
    <connection from=":gneJ8_1" to="-gneE9" fromLane="0" toLane="0" dir="s" state="M"/>
    <connection from=":gneJ8_2" to="-gneE7" fromLane="0" toLane="0" dir="l" state="M"/>
    <connection from=":gneJ8_3" to="-gneE8" fromLane="0" toLane="0" dir="r" state="M"/>
    <connection from=":gneJ8_4" to="-gneE6" fromLane="0" toLane="0" dir="s" state="M"/>
    <connection from=":gneJ8_5" to="-gneE9" fromLane="0" toLane="0" dir="l" state="M"/>
    <connection from=":gneJ8_6" to="-gneE7" fromLane="0" toLane="0" dir="r" state="M"/>
    <connection from=":gneJ8_7" to="-gneE8" fromLane="0" toLane="0" dir="s" state="M"/>
    <connection from=":gneJ8_8" to="-gneE6" fromLane="0" toLane="0" dir="l" state="M"/>
    <connection from=":gneJ8_9" to="-gneE9" fromLane="0" toLane="0" dir="r" state="M"/>
    <connection from=":gneJ8_10" to="-gneE7" fromLane="0" toLane="0" dir="s" state="M"/>
    <connection from=":gneJ8_11" to="-gneE8" fromLane="0" toLane="0" dir="l" state="M"/>

</net>
