<?xml version="1.0" encoding="UTF-8"?>

<!-- generated on Tue 25 Sep 2018 08:37:26 PM CDT by Netedit Version 0.32.0
<?xml version="1.0" encoding="UTF-8"?>

<configuration xmlns:xsi="http://www.w3.org/2001/XMLSchema-instance" xsi:noNamespaceSchemaLocation="http://sumo.dlr.de/xsd/netconvertConfiguration.xsd">

    <output>
        <output-file value="/home/avcourt/Documents/sumo-projects/small-rail/rail.net.xml"/>
    </output>

    <processing>
        <no-turnarounds value="true"/>
        <offset.disable-normalization value="true"/>
    </processing>

</configuration>
-->

<net version="0.27" xmlns:xsi="http://www.w3.org/2001/XMLSchema-instance" xsi:noNamespaceSchemaLocation="http://sumo.dlr.de/xsd/net_file.xsd">

    <location netOffset="0.00,0.00" convBoundary="-22.18,0.00,300.00,200.00" origBoundary="10000000000.00,10000000000.00,-10000000000.00,-10000000000.00" projParameter="!"/>

    <edge id=":gneJ41_0" function="internal">
        <lane id=":gneJ41_0_0" index="0" speed="13.89" length="0.14" shape="201.27,98.93 201.17,98.83"/>
    </edge>
    <edge id=":gneJ42_0" function="internal">
        <lane id=":gneJ42_0_0" index="0" speed="13.89" length="0.14" shape="201.27,98.93 201.17,98.83"/>
    </edge>

    <edge id="gneE0" from="gneJ0" to="gneJ1" priority="1" type="railway.rail">
        <lane id="gneE0_0" index="0" allow="rail_urban rail" speed="13.89" length="72.87" shape="15.93,88.00 13.85,15.16"/>
    </edge>
    <edge id="gneE1" from="gneJ2" to="gneJ3" priority="1">
        <lane id="gneE1_0" index="0" speed="13.89" length="66.82" shape="-22.21,51.80 44.60,50.60"/>
    </edge>
    <edge id="gneE13" from="gneJ21" to="gneJ22" priority="1" type="railway.rail">
        <lane id="gneE13_0" index="0" allow="rail" speed="13.89" length="58.65" shape="84.06,86.30 88.44,27.81"/>
    </edge>
    <edge id="gneE19" from="gneJ24" to="gneJ26" priority="1">
        <lane id="gneE19_0" index="0" speed="13.89" length="200.00" shape="300.00,104.95 100.00,104.95"/>
        <lane id="gneE19_1" index="1" speed="13.89" length="200.00" shape="300.00,101.65 100.00,101.65"/>
    </edge>
    <edge id="gneE20" from="gneJ31" to="gneJ32" priority="1">
        <lane id="gneE20_0" index="0" allow="rail" speed="13.89" length="200.00" shape="198.35,200.00 198.35,0.00"/>
    </edge>
    <edge id="gneE23" from="gneJ38" to="gneJ39" priority="1">
        <lane id="gneE23_0" index="0" speed="13.89" length="100.00" shape="300.00,101.65 200.00,101.65"/>
    </edge>
    <edge id="gneE24" from="gneJ40" to="gneJ41" priority="1" shape="200.00,100.00 200.10,100.10">
        <lane id="gneE24_0" index="0" speed="13.89" length="0.14" shape="201.17,98.83 201.27,98.93"/>
    </edge>
    <edge id="gneE25" from="gneJ41" to="gneJ42" priority="1" shape="200.00,100.00 200.10,100.10">
        <lane id="gneE25_0" index="0" speed="13.89" length="0.14" shape="201.17,98.83 201.27,98.93"/>
    </edge>
    <edge id="gneE26" from="gneJ42" to="gneJ43" priority="1" shape="200.00,100.00 200.10,100.10">
        <lane id="gneE26_0" index="0" speed="13.89" length="0.14" shape="201.17,98.83 201.27,98.93"/>
    </edge>

    <junction id="gneJ0" type="dead_end" x="17.58" y="87.95" incLanes="" intLanes="" shape="17.53,87.95 14.33,88.04"/>
    <junction id="gneJ1" type="dead_end" x="15.50" y="15.12" incLanes="gneE0_0" intLanes="" shape="12.25,15.21 15.45,15.12"/>
    <junction id="gneJ2" type="dead_end" x="-22.18" y="53.45" incLanes="" intLanes="" shape="-22.18,53.40 -22.24,50.20"/>
    <junction id="gneJ21" type="dead_end" x="85.71" y="86.42" incLanes="" intLanes="" shape="85.66,86.41 82.47,86.18"/>
    <junction id="gneJ22" type="dead_end" x="90.09" y="27.93" incLanes="gneE13_0" intLanes="" shape="86.85,27.69 90.04,27.93"/>
    <junction id="gneJ24" type="dead_end" x="300.00" y="100.00" incLanes="" intLanes="" shape="300.00,100.05 300.00,106.55"/>
    <junction id="gneJ26" type="dead_end" x="100.00" y="100.00" incLanes="gneE19_0 gneE19_1" intLanes="" shape="100.00,106.55 100.00,100.05"/>
    <junction id="gneJ3" type="dead_end" x="44.63" y="52.25" incLanes="gneE1_0" intLanes="" shape="44.57,49.00 44.63,52.20"/>
    <junction id="gneJ31" type="dead_end" x="200.00" y="200.00" incLanes="" intLanes="" shape="199.95,200.00 196.75,200.00"/>
    <junction id="gneJ32" type="dead_end" x="200.00" y="0.00" incLanes="gneE20_0" intLanes="" shape="196.75,0.00 199.95,0.00"/>
    <junction id="gneJ38" type="dead_end" x="300.00" y="100.00" incLanes="" intLanes="" shape="300.00,100.05 300.00,103.25"/>
    <junction id="gneJ39" type="dead_end" x="200.00" y="100.00" incLanes="gneE23_0" intLanes="" shape="200.00,103.25 200.00,100.05"/>
    <junction id="gneJ40" type="dead_end" x="200.00" y="100.00" incLanes="" intLanes="" shape="200.04,99.96 202.30,97.70"/>
    <junction id="gneJ41" type="priority" x="200.00" y="100.00" incLanes="gneE24_0" intLanes=":gneJ41_0_0" shape="200.09,100.01 202.35,97.75 200.09,100.01">
        <request index="0" response="0" foes="0" cont="0"/>
    </junction>
    <junction id="gneJ42" type="priority" x="200.00" y="100.00" incLanes="gneE25_0" intLanes=":gneJ42_0_0" shape="200.09,100.01 202.35,97.75 200.09,100.01">
        <request index="0" response="0" foes="0" cont="0"/>
    </junction>
    <junction id="gneJ43" type="dead_end" x="200.00" y="100.00" incLanes="gneE26_0" intLanes="" shape="202.30,97.70 200.04,99.96"/>

    <connection from="gneE24" to="gneE25" fromLane="0" toLane="0" via=":gneJ41_0_0" dir="s" state="M"/>
    <connection from="gneE25" to="gneE26" fromLane="0" toLane="0" via=":gneJ42_0_0" dir="s" state="M"/>

    <connection from=":gneJ41_0" to="gneE25" fromLane="0" toLane="0" dir="s" state="M"/>
    <connection from=":gneJ42_0" to="gneE26" fromLane="0" toLane="0" dir="s" state="M"/>

</net>
