<?xml version="1.0" encoding="UTF-8"?>

<!-- generated on Tue Sep 25 19:30:07 2018 by SUMO netconvert Version 0.32.0
<?xml version="1.0" encoding="UTF-8"?>

<configuration xmlns:xsi="http://www.w3.org/2001/XMLSchema-instance" xsi:noNamespaceSchemaLocation="http://sumo.dlr.de/xsd/netconvertConfiguration.xsd">

    <input>
        <osm-files value="small_rail.osm"/>
    </input>

    <output>
        <output-file value="small_rail.net.xml"/>
    </output>

    <projection>
        <proj.utm value="true"/>
    </projection>

</configuration>
-->

<net version="0.27" xmlns:xsi="http://www.w3.org/2001/XMLSchema-instance" xsi:noNamespaceSchemaLocation="http://sumo.dlr.de/xsd/net_file.xsd">

    <location netOffset="-631442.71,-5514573.85" convBoundary="0.00,0.00,2418.35,5481.38" origBoundary="-97.173302,49.768989,-97.139557,49.818270" projParameter="+proj=utm +zone=14 +ellps=WGS84 +datum=WGS84 +units=m +no_defs"/>

    <type id="highway.bridleway" priority="1" numLanes="1" speed="2.78" allow="pedestrian" oneway="1" width="2.00"/>
    <type id="highway.bus_guideway" priority="1" numLanes="1" speed="8.33" allow="bus" oneway="1"/>
    <type id="highway.cycleway" priority="1" numLanes="1" speed="5.56" allow="bicycle" oneway="0" width="1.00"/>
    <type id="highway.footway" priority="1" numLanes="1" speed="2.78" allow="pedestrian" oneway="1" width="2.00"/>
    <type id="highway.ford" priority="1" numLanes="1" speed="2.78" allow="army" oneway="0"/>
    <type id="highway.living_street" priority="3" numLanes="1" speed="2.78" disallow="tram rail_urban rail rail_electric ship" oneway="0"/>
    <type id="highway.motorway" priority="13" numLanes="2" speed="44.44" allow="private emergency authority army vip passenger hov taxi bus coach delivery truck trailer motorcycle evehicle custom1 custom2" oneway="1"/>
    <type id="highway.motorway_link" priority="12" numLanes="1" speed="22.22" allow="private emergency authority army vip passenger hov taxi bus coach delivery truck trailer motorcycle evehicle custom1 custom2" oneway="1"/>
    <type id="highway.path" priority="1" numLanes="1" speed="2.78" allow="bicycle pedestrian" oneway="1" width="2.00"/>
    <type id="highway.pedestrian" priority="1" numLanes="1" speed="2.78" allow="pedestrian" oneway="1" width="2.00"/>
    <type id="highway.primary" priority="9" numLanes="2" speed="27.78" disallow="tram rail_urban rail rail_electric ship" oneway="0"/>
    <type id="highway.primary_link" priority="8" numLanes="1" speed="22.22" disallow="tram rail_urban rail rail_electric ship" oneway="0"/>
    <type id="highway.raceway" priority="14" numLanes="2" speed="83.33" allow="vip" oneway="0"/>
    <type id="highway.residential" priority="4" numLanes="1" speed="13.89" disallow="tram rail_urban rail rail_electric ship" oneway="0"/>
    <type id="highway.secondary" priority="7" numLanes="2" speed="27.78" disallow="tram rail_urban rail rail_electric ship" oneway="0"/>
    <type id="highway.secondary_link" priority="6" numLanes="1" speed="22.22" disallow="tram rail_urban rail rail_electric ship" oneway="0"/>
    <type id="highway.service" priority="2" numLanes="1" speed="5.56" allow="delivery bicycle pedestrian" oneway="0"/>
    <type id="highway.services" priority="1" numLanes="1" speed="8.33" disallow="tram rail_urban rail rail_electric ship" oneway="0"/>
    <type id="highway.stairs" priority="1" numLanes="1" speed="1.39" allow="pedestrian" oneway="1" width="2.00"/>
    <type id="highway.step" priority="1" numLanes="1" speed="1.39" allow="pedestrian" oneway="1" width="2.00"/>
    <type id="highway.steps" priority="1" numLanes="1" speed="1.39" allow="pedestrian" oneway="1" width="2.00"/>
    <type id="highway.tertiary" priority="6" numLanes="1" speed="22.22" disallow="tram rail_urban rail rail_electric ship" oneway="0"/>
    <type id="highway.tertiary_link" priority="5" numLanes="1" speed="22.22" disallow="tram rail_urban rail rail_electric ship" oneway="0"/>
    <type id="highway.track" priority="1" numLanes="1" speed="5.56" disallow="tram rail_urban rail rail_electric ship" oneway="0"/>
    <type id="highway.trunk" priority="11" numLanes="2" speed="27.78" disallow="tram rail_urban rail rail_electric bicycle pedestrian ship" oneway="0"/>
    <type id="highway.trunk_link" priority="10" numLanes="1" speed="22.22" disallow="tram rail_urban rail rail_electric bicycle pedestrian ship" oneway="0"/>
    <type id="highway.unclassified" priority="5" numLanes="1" speed="13.89" disallow="tram rail_urban rail rail_electric ship" oneway="0"/>
    <type id="highway.unsurfaced" priority="1" numLanes="1" speed="8.33" disallow="tram rail_urban rail rail_electric ship" oneway="0"/>
    <type id="railway.light_rail" priority="15" numLanes="1" speed="27.78" allow="rail_urban" oneway="1"/>
    <type id="railway.preserved" priority="15" numLanes="1" speed="27.78" allow="rail" oneway="1"/>
    <type id="railway.rail" priority="15" numLanes="1" speed="83.33" allow="rail rail_electric" oneway="1"/>
    <type id="railway.subway" priority="15" numLanes="1" speed="27.78" allow="rail_urban" oneway="1"/>
    <type id="railway.tram" priority="15" numLanes="1" speed="13.89" allow="tram" oneway="1"/>

    <edge id=":1165560197_0" function="internal">
        <lane id=":1165560197_0_0" index="0" allow="rail rail_electric" speed="83.33" length="0.30" shape="1088.55,3613.24 1088.56,3613.54"/>
    </edge>
    <edge id=":1463018787_0" function="internal">
        <lane id=":1463018787_0_0" index="0" disallow="tram rail_urban rail rail_electric ship" speed="13.89" length="4.48" shape="1001.21,3711.58 1000.16,3710.77 999.42,3710.24 998.65,3709.75 997.51,3709.06"/>
    </edge>
    <edge id=":1463018787_1" function="internal">
        <lane id=":1463018787_1_0" index="0" allow="bicycle" speed="9.72" length="2.70" width="1.00" shape="1001.21,3711.58 1000.56,3710.57 1000.57,3709.07"/>
    </edge>
    <edge id=":1463018787_2" function="internal">
        <lane id=":1463018787_2_0" index="0" disallow="tram rail_urban rail rail_electric ship" speed="13.89" length="2.41" shape="1001.21,3711.58 1000.75,3710.17 1000.94,3709.27"/>
    </edge>
    <edge id=":1463018787_9" function="internal">
        <lane id=":1463018787_9_0" index="0" speed="9.72" length="4.89" width="1.00" shape="1000.57,3709.07 1001.22,3707.08 1002.52,3704.60"/>
    </edge>
    <edge id=":1463018787_10" function="internal">
        <lane id=":1463018787_10_0" index="0" speed="13.89" length="2.41" shape="1000.94,3709.27 1001.77,3708.87 1003.26,3708.99"/>
    </edge>
    <edge id=":1463018787_3" function="internal">
        <lane id=":1463018787_3_0" index="0" disallow="tram rail_urban rail rail_electric ship" speed="9.72" length="4.19" shape="1003.47,3705.17 1002.85,3706.43 1002.60,3707.48 1002.74,3708.34 1003.26,3708.99"/>
    </edge>
    <edge id=":1463018787_4" function="internal">
        <lane id=":1463018787_4_0" index="0" disallow="tram rail_urban rail rail_electric ship" speed="9.72" length="7.85" shape="1003.47,3705.17 1001.86,3707.47 1000.34,3708.89 998.89,3709.42 997.51,3709.06"/>
    </edge>
    <edge id=":1463018787_5" function="internal">
        <lane id=":1463018787_5_0" index="0" allow="bicycle" speed="5.56" length="1.61" width="1.00" shape="1003.47,3705.17 1003.02,3705.38 1002.71,3705.36 1002.55,3705.10 1002.52,3704.60"/>
    </edge>
    <edge id=":1463018787_6" function="internal">
        <lane id=":1463018787_6_0" index="0" allow="bicycle" speed="9.72" length="4.15" width="1.00" shape="999.21,3706.23 1000.07,3706.52 1000.90,3706.34 1001.72,3705.70 1002.52,3704.60"/>
    </edge>
    <edge id=":1463018787_7" function="internal">
        <lane id=":1463018787_7_0" index="0" disallow="tram rail_urban rail rail_electric ship" speed="13.89" length="4.90" shape="999.21,3706.23 1000.46,3706.98 1001.30,3707.52 1002.11,3708.10 1003.26,3708.99"/>
    </edge>
    <edge id=":1463018787_8" function="internal">
        <lane id=":1463018787_8_0" index="0" disallow="tram rail_urban rail rail_electric ship" speed="13.89" length="2.41" shape="999.21,3706.23 999.85,3707.58 999.78,3708.50"/>
    </edge>
    <edge id=":1463018787_11" function="internal">
        <lane id=":1463018787_11_0" index="0" speed="13.89" length="2.41" shape="999.78,3708.50 999.00,3708.99 997.51,3709.06"/>
    </edge>
    <edge id=":1463941070_0" function="internal">
        <lane id=":1463941070_0_0" index="0" disallow="tram rail_urban rail rail_electric ship" speed="13.89" length="5.11" shape="937.66,3687.96 932.55,3688.00"/>
    </edge>
    <edge id=":1463941070_1" function="internal">
        <lane id=":1463941070_1_0" index="0" disallow="tram rail_urban rail rail_electric ship" speed="13.89" length="2.41" shape="937.66,3687.96 936.44,3687.10 936.05,3686.27"/>
    </edge>
    <edge id=":1463941070_4" function="internal">
        <lane id=":1463941070_4_0" index="0" speed="13.89" length="2.41" shape="936.05,3686.27 936.49,3685.45 937.74,3684.66"/>
    </edge>
    <edge id=":1463941070_2" function="internal">
        <lane id=":1463941070_2_0" index="0" disallow="tram rail_urban rail rail_electric ship" speed="13.89" length="5.34" shape="932.40,3684.70 937.74,3684.66"/>
    </edge>
    <edge id=":1463941070_3" function="internal">
        <lane id=":1463941070_3_0" index="0" disallow="tram rail_urban rail rail_electric ship" speed="13.89" length="2.53" shape="932.40,3684.70 933.68,3685.47 934.13,3686.28 934.08,3686.39"/>
    </edge>
    <edge id=":1463941070_5" function="internal">
        <lane id=":1463941070_5_0" index="0" speed="13.89" length="2.29" shape="934.08,3686.39 933.75,3687.12 932.55,3688.00"/>
    </edge>
    <edge id=":1463941071_0" function="internal">
        <lane id=":1463941071_0_0" index="0" disallow="tram rail_urban rail rail_electric ship" speed="13.89" length="5.35" shape="939.42,3777.48 938.06,3776.65 937.15,3776.00 936.18,3775.51 934.67,3775.16"/>
    </edge>
    <edge id=":1463941071_1" function="internal">
        <lane id=":1463941071_1_0" index="0" disallow="tram rail_urban rail rail_electric ship" speed="13.89" length="2.41" shape="939.42,3777.48 938.71,3776.17 938.72,3775.25"/>
    </edge>
    <edge id=":1463941071_4" function="internal">
        <lane id=":1463941071_4_0" index="0" speed="13.89" length="2.41" shape="938.72,3775.25 939.47,3774.71 940.95,3774.55"/>
    </edge>
    <edge id=":1463941071_2" function="internal">
        <lane id=":1463941071_2_0" index="0" disallow="tram rail_urban rail rail_electric ship" speed="13.89" length="5.31" shape="936.24,3772.10 940.95,3774.55"/>
    </edge>
    <edge id=":1463941071_3" function="internal">
        <lane id=":1463941071_3_0" index="0" disallow="tram rail_urban rail rail_electric ship" speed="13.89" length="2.23" shape="936.24,3772.10 937.00,3773.45 936.99,3774.13"/>
    </edge>
    <edge id=":1463941071_5" function="internal">
        <lane id=":1463941071_5_0" index="0" speed="13.89" length="2.81" shape="936.99,3774.13 936.99,3774.42 936.21,3774.99 934.67,3775.16"/>
    </edge>
    <edge id=":1671196210_0" function="internal">
        <lane id=":1671196210_0_0" index="0" disallow="tram rail_urban rail rail_electric ship" speed="22.22" length="6.67" shape="1092.17,3622.32 1085.63,3622.12"/>
        <lane id=":1671196210_0_1" index="1" disallow="tram rail_urban rail rail_electric ship" speed="22.22" length="6.67" shape="1092.40,3619.03 1085.59,3618.82"/>
    </edge>
    <edge id=":1671196210_2" function="internal">
        <lane id=":1671196210_2_0" index="0" allow="rail rail_electric" speed="83.33" length="9.76" shape="1088.62,3615.65 1089.04,3625.40"/>
    </edge>
    <edge id=":1821724103_0" function="internal">
        <lane id=":1821724103_0_0" index="0" allow="bicycle" speed="5.56" length="1.61" width="1.00" shape="1129.29,3584.68 1129.78,3584.76 1130.02,3584.96 1130.01,3585.26 1129.74,3585.69"/>
    </edge>
    <edge id=":1821724110_0" function="internal">
        <lane id=":1821724110_0_0" index="0" allow="bicycle" speed="5.56" length="1.61" width="1.00" shape="578.03,3612.61 577.55,3612.75 577.25,3612.68 577.13,3612.40 577.18,3611.91"/>
    </edge>
    <edge id=":1821724599_0" function="internal">
        <lane id=":1821724599_0_0" index="0" allow="bicycle" speed="5.56" length="1.61" width="1.00" shape="1188.67,2911.29 1188.94,2910.88 1189.22,2910.74 1189.49,2910.88 1189.77,2911.29"/>
    </edge>
    <edge id=":1821724609_0" function="internal">
        <lane id=":1821724609_0_0" index="0" allow="bicycle" speed="5.56" length="4.96" width="1.00" shape="1208.61,3593.07 1207.57,3592.03 1206.88,3591.29 1206.24,3590.51 1205.33,3589.35"/>
    </edge>
    <edge id=":1821724609_1" function="internal">
        <lane id=":1821724609_1_0" index="0" allow="bicycle" speed="5.56" length="1.61" width="1.00" shape="1208.61,3593.07 1208.51,3592.58 1208.60,3592.29 1208.89,3592.19 1209.38,3592.29"/>
    </edge>
    <edge id=":1821724609_2" function="internal">
        <lane id=":1821724609_2_0" index="0" allow="bicycle" speed="5.56" length="4.82" width="1.00" shape="1206.20,3588.67 1207.08,3589.80 1207.70,3590.56 1208.37,3591.27 1209.38,3592.29"/>
    </edge>
    <edge id=":1821724609_3" function="internal">
        <lane id=":1821724609_3_0" index="0" allow="bicycle" speed="5.56" length="1.61" width="1.00" shape="1206.20,3588.67 1206.24,3589.17 1206.11,3589.44 1205.80,3589.50 1205.33,3589.35"/>
    </edge>
    <edge id=":3325841450_0" function="internal">
        <lane id=":3325841450_0_0" index="0" disallow="tram rail_urban rail rail_electric ship" speed="11.11" length="5.39" shape="1151.82,3649.93 1151.04,3648.54 1150.44,3647.62 1149.74,3646.77 1148.66,3645.59"/>
    </edge>
    <edge id=":3325841451_0" function="internal">
        <lane id=":3325841451_0_0" index="0" disallow="tram rail_urban rail rail_electric ship" speed="22.22" length="14.70" shape="1156.63,3621.37 1160.13,3622.59 1163.49,3624.00 1166.77,3625.60 1170.02,3627.38"/>
    </edge>
    <edge id=":3325841451_1" function="internal">
        <lane id=":3325841451_1_0" index="0" disallow="tram rail_urban rail rail_electric ship" speed="16.67" length="8.50" shape="1159.74,3627.04 1159.78,3618.66"/>
        <lane id=":3325841451_1_1" index="1" disallow="tram rail_urban rail rail_electric ship" speed="16.67" length="8.50" shape="1163.04,3627.12 1163.08,3618.62"/>
        <lane id=":3325841451_1_2" index="2" disallow="tram rail_urban rail rail_electric ship" speed="16.67" length="8.50" shape="1166.34,3627.20 1166.37,3618.58"/>
    </edge>
    <edge id=":3325841451_4" function="internal">
        <lane id=":3325841451_4_0" index="0" disallow="tram rail_urban rail rail_electric ship" speed="19.44" length="4.44" shape="1166.34,3627.20 1166.59,3626.50 1167.28,3626.29 1168.43,3626.58 1170.02,3627.38"/>
    </edge>
    <edge id=":3325841459_0" function="internal">
        <lane id=":3325841459_0_0" index="0" allow="bicycle" speed="5.56" length="6.24" width="1.00" shape="1092.49,3631.71 1086.25,3631.87"/>
    </edge>
    <edge id=":3325841459_1" function="internal">
        <lane id=":3325841459_1_0" index="0" allow="rail rail_electric" speed="83.33" length="5.16" shape="1089.22,3628.64 1089.45,3633.80"/>
    </edge>
    <edge id=":3325841459_2" function="internal">
        <lane id=":3325841459_2_0" index="0" allow="bicycle" speed="5.56" length="6.24" width="1.00" shape="1086.22,3630.77 1092.46,3630.61"/>
    </edge>
    <edge id=":3325844762_0" function="internal">
        <lane id=":3325844762_0_0" index="0" allow="bicycle" speed="5.56" length="1.61" width="1.00" shape="1143.28,3649.54 1143.40,3650.02 1143.32,3650.32 1143.03,3650.43 1142.54,3650.36"/>
    </edge>
    <edge id=":3325844763_0" function="internal">
        <lane id=":3325844763_0_0" index="0" disallow="tram rail_urban rail rail_electric ship" speed="11.11" length="5.36" shape="1133.11,3591.23 1134.51,3590.48 1135.45,3589.92 1136.31,3589.26 1137.53,3588.23"/>
    </edge>
    <edge id=":3325844768_0" function="internal">
        <lane id=":3325844768_0_0" index="0" allow="bicycle" speed="5.56" length="1.61" width="1.00" shape="1214.11,3673.04 1213.68,3672.79 1213.52,3672.53 1213.64,3672.25 1214.03,3671.94"/>
    </edge>
    <edge id=":3325844771_0" function="internal">
        <lane id=":3325844771_0_0" index="0" disallow="tram rail_urban rail rail_electric ship" speed="11.11" length="5.07" shape="1197.09,3594.40 1199.83,3598.66"/>
    </edge>
    <edge id=":3325844775_0" function="internal">
        <lane id=":3325844775_0_0" index="0" disallow="tram rail_urban rail rail_electric ship" speed="16.67" length="7.66" shape="1187.45,3643.06 1187.47,3650.73"/>
        <lane id=":3325844775_0_1" index="1" disallow="tram rail_urban rail rail_electric ship" speed="16.67" length="7.66" shape="1184.15,3643.07 1184.17,3650.73"/>
        <lane id=":3325844775_0_2" index="2" disallow="tram rail_urban rail rail_electric ship" speed="16.67" length="7.66" shape="1180.85,3643.08 1180.87,3650.74"/>
    </edge>
    <edge id=":3325844776_0" function="internal">
        <lane id=":3325844776_0_0" index="0" disallow="tram rail_urban rail rail_electric ship" speed="16.67" length="6.84" shape="1159.71,3643.47 1159.68,3636.64"/>
        <lane id=":3325844776_0_1" index="1" disallow="tram rail_urban rail rail_electric ship" speed="16.67" length="6.84" shape="1163.01,3643.46 1162.98,3636.62"/>
        <lane id=":3325844776_0_2" index="2" disallow="tram rail_urban rail rail_electric ship" speed="16.67" length="6.84" shape="1166.31,3643.45 1166.28,3636.61"/>
    </edge>
    <edge id=":3325844777_0" function="internal">
        <lane id=":3325844777_0_0" index="0" disallow="tram rail_urban rail rail_electric ship" speed="16.67" length="5.12" shape="1190.01,3614.47 1194.94,3615.86"/>
    </edge>
    <edge id=":3325844778_0" function="internal">
        <lane id=":3325844778_0_0" index="0" disallow="tram rail_urban rail rail_electric ship" speed="16.67" length="5.89" shape="1195.75,3642.87 1190.42,3640.36"/>
    </edge>
    <edge id=":3325844779_0" function="internal">
        <lane id=":3325844779_0_0" index="0" disallow="tram rail_urban rail rail_electric ship" speed="16.67" length="6.02" shape="1159.60,3603.18 1159.54,3597.16"/>
        <lane id=":3325844779_0_1" index="1" disallow="tram rail_urban rail rail_electric ship" speed="16.67" length="6.02" shape="1162.90,3603.15 1162.84,3597.13"/>
        <lane id=":3325844779_0_2" index="2" disallow="tram rail_urban rail rail_electric ship" speed="16.67" length="6.02" shape="1166.20,3603.12 1166.14,3597.10"/>
    </edge>
    <edge id=":3325844780_0" function="internal">
        <lane id=":3325844780_0_0" index="0" disallow="tram rail_urban rail rail_electric ship" speed="16.67" length="6.00" shape="1187.29,3601.39 1187.28,3607.39"/>
        <lane id=":3325844780_0_1" index="1" disallow="tram rail_urban rail rail_electric ship" speed="16.67" length="6.00" shape="1183.99,3601.38 1183.98,3607.38"/>
        <lane id=":3325844780_0_2" index="2" disallow="tram rail_urban rail rail_electric ship" speed="16.67" length="6.00" shape="1180.69,3601.37 1180.68,3607.37"/>
    </edge>
    <edge id=":3325844781_0" function="internal">
        <lane id=":3325844781_0_0" index="0" disallow="tram rail_urban rail rail_electric ship" speed="22.22" length="5.59" shape="1150.77,3604.55 1156.32,3605.23"/>
        <lane id=":3325844781_0_1" index="1" disallow="tram rail_urban rail rail_electric ship" speed="22.22" length="5.59" shape="1150.37,3607.83 1155.92,3608.51"/>
    </edge>
    <edge id=":3325844782_0" function="internal">
        <lane id=":3325844782_0_0" index="0" disallow="tram rail_urban rail rail_electric ship" speed="22.22" length="5.81" shape="1150.74,3619.52 1156.28,3621.26"/>
    </edge>
    <edge id=":3325844783_0" function="internal">
        <lane id=":3325844783_0_0" index="0" disallow="tram rail_urban rail rail_electric ship" speed="22.22" length="5.84" shape="1156.15,3631.04 1150.41,3629.98"/>
        <lane id=":3325844783_0_1" index="1" disallow="tram rail_urban rail rail_electric ship" speed="22.22" length="5.84" shape="1156.75,3627.80 1151.01,3626.73"/>
    </edge>
    <edge id=":366758060_0" function="internal">
        <lane id=":366758060_0_0" index="0" disallow="tram rail_urban rail rail_electric ship" speed="16.67" length="9.76" shape="1187.28,3607.59 1187.30,3617.32"/>
        <lane id=":366758060_0_1" index="1" disallow="tram rail_urban rail rail_electric ship" speed="16.67" length="9.76" shape="1183.98,3607.58 1184.00,3617.34"/>
        <lane id=":366758060_0_2" index="2" disallow="tram rail_urban rail rail_electric ship" speed="16.67" length="9.76" shape="1180.68,3607.57 1180.70,3617.36"/>
    </edge>
    <edge id=":366758060_3" function="internal">
        <lane id=":366758060_3_0" index="0" disallow="tram rail_urban rail rail_electric ship" speed="19.44" length="13.55" shape="1177.25,3609.44 1181.31,3610.69 1184.20,3612.01 1186.75,3613.28 1189.82,3614.41"/>
    </edge>
    <edge id=":366758060_4" function="internal">
        <lane id=":366758060_4_0" index="0" disallow="tram rail_urban rail rail_electric ship" speed="19.44" length="9.35" shape="1176.48,3612.65 1179.76,3613.62 1182.11,3614.73 1183.52,3615.97 1184.00,3617.34"/>
    </edge>
    <edge id=":366758060_5" function="internal">
        <lane id=":366758060_5_0" index="0" disallow="tram rail_urban rail rail_electric ship" speed="19.44" length="6.88" shape="1176.48,3612.65 1178.31,3613.33 1179.63,3614.33 1180.42,3615.68 1180.70,3617.36"/>
    </edge>
    <edge id=":370285013_0" function="internal">
        <lane id=":370285013_0_0" index="0" disallow="tram rail_urban rail rail_electric ship" speed="13.89" length="5.01" shape="1019.52,3415.48 1019.29,3414.13 1018.67,3413.18 1017.68,3412.63 1016.31,3412.49"/>
    </edge>
    <edge id=":370285013_1" function="internal">
        <lane id=":370285013_1_0" index="0" disallow="tram rail_urban rail rail_electric ship" speed="13.89" length="9.51" shape="1019.52,3415.48 1019.18,3405.98"/>
    </edge>
    <edge id=":370285013_2" function="internal">
        <lane id=":370285013_2_0" index="0" disallow="tram rail_urban rail rail_electric ship" speed="13.89" length="4.82" shape="1019.52,3415.48 1020.31,3414.22 1021.12,3413.78 1021.96,3414.16 1022.82,3415.37"/>
    </edge>
    <edge id=":370285013_3" function="internal">
        <lane id=":370285013_3_0" index="0" disallow="tram rail_urban rail rail_electric ship" speed="13.89" length="9.53" shape="1022.48,3405.85 1022.82,3415.37"/>
    </edge>
    <edge id=":370285013_4" function="internal">
        <lane id=":370285013_4_0" index="0" disallow="tram rail_urban rail rail_electric ship" speed="13.89" length="10.34" shape="1022.48,3405.85 1022.19,3408.66 1021.06,3410.71 1019.11,3411.98 1016.31,3412.49"/>
    </edge>
    <edge id=":370285013_5" function="internal">
        <lane id=":370285013_5_0" index="0" disallow="tram rail_urban rail rail_electric ship" speed="13.89" length="4.82" shape="1022.48,3405.85 1021.70,3407.12 1020.90,3407.56 1020.06,3407.18 1019.18,3405.98"/>
    </edge>
    <edge id=":370285013_6" function="internal">
        <lane id=":370285013_6_0" index="0" disallow="tram rail_urban rail rail_electric ship" speed="13.89" length="5.02" shape="1016.19,3409.20 1017.54,3408.95 1018.49,3408.33 1019.04,3407.34 1019.18,3405.98"/>
    </edge>
    <edge id=":370285013_7" function="internal">
        <lane id=":370285013_7_0" index="0" disallow="tram rail_urban rail rail_electric ship" speed="13.89" length="10.35" shape="1016.19,3409.20 1019.01,3409.49 1021.06,3410.61 1022.33,3412.58 1022.82,3415.37"/>
    </edge>
    <edge id=":370285013_8" function="internal">
        <lane id=":370285013_8_0" index="0" disallow="tram rail_urban rail rail_electric ship" speed="13.89" length="4.82" shape="1016.19,3409.20 1017.45,3409.97 1017.90,3410.78 1017.52,3411.62 1016.31,3412.49"/>
    </edge>
    <edge id=":4139857125_0" function="internal">
        <lane id=":4139857125_0_0" index="0" disallow="tram rail_urban rail rail_electric ship" speed="22.22" length="3.55" shape="979.17,3602.08 980.11,3601.79 980.64,3601.21 981.17,3600.62 982.11,3600.33"/>
        <lane id=":4139857125_0_1" index="1" disallow="tram rail_urban rail rail_electric ship" speed="22.22" length="3.55" shape="979.17,3602.08 980.12,3602.31 980.69,3602.85 981.26,3603.40 982.22,3603.63"/>
        <lane id=":4139857125_0_2" index="2" disallow="tram rail_urban rail rail_electric ship" speed="22.22" length="3.55" shape="979.28,3605.38 980.24,3605.60 980.81,3606.15 981.38,3606.70 982.34,3606.93"/>
        <lane id=":4139857125_0_3" index="3" disallow="tram rail_urban rail rail_electric ship" speed="22.22" length="3.55" shape="979.39,3608.68 980.35,3608.90 980.92,3609.45 981.49,3610.00 982.45,3610.22"/>
    </edge>
    <edge id=":4166356642_0" function="internal">
        <lane id=":4166356642_0_0" index="0" allow="bicycle" speed="5.56" length="1.61" width="1.00" shape="1938.97,4058.01 1939.19,4058.46 1939.17,4058.76 1938.92,4058.94 1938.42,4058.97"/>
    </edge>
    <edge id=":4690379441_0" function="internal">
        <lane id=":4690379441_0_0" index="0" disallow="tram rail_urban rail rail_electric ship" speed="13.89" length="4.82" shape="45.52,2885.40 44.77,2884.11 44.76,2883.19 45.50,2882.63 46.97,2882.43"/>
    </edge>
    <edge id=":4691567155_0" function="internal">
        <lane id=":4691567155_0_0" index="0" disallow="tram rail_urban rail rail_electric ship" speed="13.89" length="4.82" shape="747.97,3880.30 747.17,3881.55 746.35,3881.97 745.52,3881.57 744.67,3880.35"/>
    </edge>
    <edge id=":473128442_0" function="internal">
        <lane id=":473128442_0_0" index="0" disallow="tram rail_urban rail rail_electric ship" speed="13.89" length="7.87" shape="734.67,4919.16 733.68,4921.07 732.32,4922.22 730.58,4922.59 728.46,4922.20"/>
    </edge>
    <edge id=":473128442_1" function="internal">
        <lane id=":473128442_1_0" index="0" disallow="tram rail_urban rail rail_electric ship" speed="13.89" length="2.80" shape="734.67,4919.16 733.48,4920.06 732.57,4920.18 732.29,4919.90"/>
    </edge>
    <edge id=":473128442_4" function="internal">
        <lane id=":473128442_4_0" index="0" speed="13.89" length="2.02" shape="732.29,4919.90 731.92,4919.52 731.55,4918.08"/>
    </edge>
    <edge id=":473128442_2" function="internal">
        <lane id=":473128442_2_0" index="0" disallow="tram rail_urban rail rail_electric ship" speed="13.89" length="2.57" shape="729.52,4919.07 730.21,4919.20 730.78,4919.08 731.23,4918.71 731.55,4918.08"/>
    </edge>
    <edge id=":473128442_3" function="internal">
        <lane id=":473128442_3_0" index="0" disallow="tram rail_urban rail rail_electric ship" speed="13.89" length="2.20" shape="729.52,4919.07 730.43,4920.25 730.53,4920.96"/>
    </edge>
    <edge id=":473128442_5" function="internal">
        <lane id=":473128442_5_0" index="0" speed="13.89" length="2.62" shape="730.53,4920.96 730.56,4921.17 729.90,4921.81 728.46,4922.20"/>
    </edge>
    <edge id=":474717908_0" function="internal">
        <lane id=":474717908_0_0" index="0" disallow="tram rail_urban rail rail_electric ship" speed="13.89" length="4.82" shape="949.28,3854.36 948.51,3855.63 947.70,3856.08 946.86,3855.70 945.98,3854.50"/>
    </edge>
    <edge id=":499650771_0" function="internal">
        <lane id=":499650771_0_0" index="0" disallow="tram rail_urban rail rail_electric ship" speed="13.89" length="4.82" shape="1007.86,3070.67 1008.65,3069.41 1009.47,3068.97 1010.30,3069.36 1011.16,3070.58"/>
    </edge>
    <edge id=":501848462_0" function="internal">
        <lane id=":501848462_0_0" index="0" disallow="tram rail_urban rail rail_electric ship" speed="13.89" length="4.82" shape="1028.08,3575.96 1027.30,3577.22 1026.49,3577.66 1025.65,3577.28 1024.78,3576.07"/>
    </edge>
    <edge id=":501850732_0" function="internal">
        <lane id=":501850732_0_0" index="0" disallow="tram rail_urban rail rail_electric ship" speed="16.67" length="19.46" shape="1099.50,3598.18 1105.95,3598.25 1111.03,3598.36 1115.20,3598.26 1118.93,3597.73"/>
    </edge>
    <edge id=":501850732_1" function="internal">
        <lane id=":501850732_1_0" index="0" disallow="tram rail_urban rail rail_electric ship" speed="22.22" length="17.59" shape="1099.50,3598.18 1104.64,3598.72 1108.06,3599.95 1111.49,3601.21 1116.62,3601.85"/>
        <lane id=":501850732_1_1" index="1" disallow="tram rail_urban rail rail_electric ship" speed="22.22" length="17.59" shape="1099.52,3601.48 1104.64,3602.02 1108.04,3603.25 1111.45,3604.51 1116.57,3605.15"/>
    </edge>
    <edge id=":501850732_3" function="internal">
        <lane id=":501850732_3_0" index="0" disallow="tram rail_urban rail rail_electric ship" speed="22.22" length="3.90" shape="1099.55,3608.08 1100.67,3608.23 1101.39,3608.57 1102.10,3608.98 1103.20,3609.30"/>
    </edge>
    <edge id=":501850740_0" function="internal">
        <lane id=":501850740_0_0" index="0" disallow="tram rail_urban rail rail_electric ship" speed="16.67" length="10.31" shape="1159.21,3564.76 1159.05,3554.42"/>
        <lane id=":501850740_0_1" index="1" disallow="tram rail_urban rail rail_electric ship" speed="16.67" length="10.31" shape="1162.51,3564.72 1162.35,3554.42"/>
        <lane id=":501850740_0_2" index="2" disallow="tram rail_urban rail rail_electric ship" speed="16.67" length="10.31" shape="1165.81,3564.69 1165.65,3554.42"/>
    </edge>
    <edge id=":501850740_3" function="internal">
        <lane id=":501850740_3_0" index="0" disallow="tram rail_urban rail rail_electric ship" speed="13.89" length="10.36" shape="1155.52,3563.97 1156.95,3561.27 1158.06,3559.40 1158.79,3557.42 1159.05,3554.42"/>
    </edge>
    <edge id=":501851358_0" function="internal">
        <lane id=":501851358_0_0" index="0" disallow="tram rail_urban rail rail_electric ship" speed="13.89" length="12.67" shape="1159.67,3669.23 1159.37,3665.36 1158.64,3662.60 1157.48,3660.18 1155.89,3657.35"/>
    </edge>
    <edge id=":501851358_1" function="internal">