<configuration>
	<input>
		<net-file value="rail_markham.net.xml" />
		<route-files value="rail_markham.rou.xml" />
	</input>

	<time>
		<begin value="0" />
		<end value="2000" />
	</time>
	
</configuration>
