<?xml version="1.0" encoding="UTF-8"?>

<!-- generated on Tue Sep 25 20:39:50 2018 by SUMO netconvert Version 0.32.0
<?xml version="1.0" encoding="UTF-8"?>

<configuration xmlns:xsi="http://www.w3.org/2001/XMLSchema-instance" xsi:noNamespaceSchemaLocation="http://sumo.dlr.de/xsd/netconvertConfiguration.xsd">

    <input>
        <osm-files value="rail_markham.osm"/>
    </input>

    <output>
        <output-file value="rail_markham.net.xml"/>
    </output>

    <projection>
        <proj.utm value="true"/>
    </projection>

</configuration>
-->

<net version="0.27" xmlns:xsi="http://www.w3.org/2001/XMLSchema-instance" xsi:noNamespaceSchemaLocation="http://sumo.dlr.de/xsd/net_file.xsd">

    <location netOffset="-631556.32,-5518187.24" convBoundary="0.00,0.00,1328.27,4392.66" origBoundary="-97.171512,49.801491,-97.152902,49.840945" projParameter="+proj=utm +zone=14 +ellps=WGS84 +datum=WGS84 +units=m +no_defs"/>

    <type id="highway.bridleway" priority="1" numLanes="1" speed="2.78" allow="pedestrian" oneway="1" width="2.00"/>
    <type id="highway.bus_guideway" priority="1" numLanes="1" speed="8.33" allow="bus" oneway="1"/>
    <type id="highway.cycleway" priority="1" numLanes="1" speed="5.56" allow="bicycle" oneway="0" width="1.00"/>
    <type id="highway.footway" priority="1" numLanes="1" speed="2.78" allow="pedestrian" oneway="1" width="2.00"/>
    <type id="highway.ford" priority="1" numLanes="1" speed="2.78" allow="army" oneway="0"/>
    <type id="highway.living_street" priority="3" numLanes="1" speed="2.78" disallow="tram rail_urban rail rail_electric ship" oneway="0"/>
    <type id="highway.motorway" priority="13" numLanes="2" speed="44.44" allow="private emergency authority army vip passenger hov taxi bus coach delivery truck trailer motorcycle evehicle custom1 custom2" oneway="1"/>
    <type id="highway.motorway_link" priority="12" numLanes="1" speed="22.22" allow="private emergency authority army vip passenger hov taxi bus coach delivery truck trailer motorcycle evehicle custom1 custom2" oneway="1"/>
    <type id="highway.path" priority="1" numLanes="1" speed="2.78" allow="bicycle pedestrian" oneway="1" width="2.00"/>
    <type id="highway.pedestrian" priority="1" numLanes="1" speed="2.78" allow="pedestrian" oneway="1" width="2.00"/>
    <type id="highway.primary" priority="9" numLanes="2" speed="27.78" disallow="tram rail_urban rail rail_electric ship" oneway="0"/>
    <type id="highway.primary_link" priority="8" numLanes="1" speed="22.22" disallow="tram rail_urban rail rail_electric ship" oneway="0"/>
    <type id="highway.raceway" priority="14" numLanes="2" speed="83.33" allow="vip" oneway="0"/>
    <type id="highway.residential" priority="4" numLanes="1" speed="13.89" disallow="tram rail_urban rail rail_electric ship" oneway="0"/>
    <type id="highway.secondary" priority="7" numLanes="2" speed="27.78" disallow="tram rail_urban rail rail_electric ship" oneway="0"/>
    <type id="highway.secondary_link" priority="6" numLanes="1" speed="22.22" disallow="tram rail_urban rail rail_electric ship" oneway="0"/>
    <type id="highway.service" priority="2" numLanes="1" speed="5.56" allow="delivery bicycle pedestrian" oneway="0"/>
    <type id="highway.services" priority="1" numLanes="1" speed="8.33" disallow="tram rail_urban rail rail_electric ship" oneway="0"/>
    <type id="highway.stairs" priority="1" numLanes="1" speed="1.39" allow="pedestrian" oneway="1" width="2.00"/>
    <type id="highway.step" priority="1" numLanes="1" speed="1.39" allow="pedestrian" oneway="1" width="2.00"/>
    <type id="highway.steps" priority="1" numLanes="1" speed="1.39" allow="pedestrian" oneway="1" width="2.00"/>
    <type id="highway.tertiary" priority="6" numLanes="1" speed="22.22" disallow="tram rail_urban rail rail_electric ship" oneway="0"/>
    <type id="highway.tertiary_link" priority="5" numLanes="1" speed="22.22" disallow="tram rail_urban rail rail_electric ship" oneway="0"/>
    <type id="highway.track" priority="1" numLanes="1" speed="5.56" disallow="tram rail_urban rail rail_electric ship" oneway="0"/>
    <type id="highway.trunk" priority="11" numLanes="2" speed="27.78" disallow="tram rail_urban rail rail_electric bicycle pedestrian ship" oneway="0"/>
    <type id="highway.trunk_link" priority="10" numLanes="1" speed="22.22" disallow="tram rail_urban rail rail_electric bicycle pedestrian ship" oneway="0"/>
    <type id="highway.unclassified" priority="5" numLanes="1" speed="13.89" disallow="tram rail_urban rail rail_electric ship" oneway="0"/>
    <type id="highway.unsurfaced" priority="1" numLanes="1" speed="8.33" disallow="tram rail_urban rail rail_electric ship" oneway="0"/>
    <type id="railway.light_rail" priority="15" numLanes="1" speed="27.78" allow="rail_urban" oneway="1"/>
    <type id="railway.preserved" priority="15" numLanes="1" speed="27.78" allow="rail" oneway="1"/>
    <type id="railway.rail" priority="15" numLanes="1" speed="83.33" allow="rail rail_electric" oneway="1"/>
    <type id="railway.subway" priority="15" numLanes="1" speed="27.78" allow="rail_urban" oneway="1"/>
    <type id="railway.tram" priority="15" numLanes="1" speed="13.89" allow="tram" oneway="1"/>

    <edge id=":1240469661_0" function="internal">
        <lane id=":1240469661_0_0" index="0" allow="bicycle" speed="9.72" length="4.16" width="1.00" shape="465.09,1449.66 464.20,1449.57 463.42,1449.92 462.75,1450.72 462.19,1451.97"/>
    </edge>
    <edge id=":1240469661_1" function="internal">
        <lane id=":1240469661_1_0" index="0" disallow="tram rail_urban rail rail_electric ship" speed="13.89" length="5.10" shape="465.09,1449.66 460.25,1448.04"/>
    </edge>
    <edge id=":1240469661_2" function="internal">
        <lane id=":1240469661_2_0" index="0" disallow="tram rail_urban rail rail_electric ship" speed="13.89" length="2.41" shape="465.09,1449.66 464.18,1448.49 464.05,1447.57"/>
    </edge>
    <edge id=":1240469661_9" function="internal">
        <lane id=":1240469661_9_0" index="0" speed="13.89" length="2.41" shape="464.05,1447.57 464.71,1446.92 466.14,1446.54"/>
    </edge>
    <edge id=":1240469661_3" function="internal">
        <lane id=":1240469661_3_0" index="0" disallow="tram rail_urban rail rail_electric ship" speed="13.89" length="5.11" shape="461.30,1444.91 466.14,1446.54"/>
    </edge>
    <edge id=":1240469661_4" function="internal">
        <lane id=":1240469661_4_0" index="0" allow="bicycle" speed="9.72" length="3.07" width="1.00" shape="461.30,1444.91 462.46,1445.72 463.00,1447.17 463.00,1447.27"/>
    </edge>
    <edge id=":1240469661_5" function="internal">
        <lane id=":1240469661_5_0" index="0" disallow="tram rail_urban rail rail_electric ship" speed="13.89" length="2.41" shape="461.30,1444.91 462.21,1446.08 462.34,1447.00"/>
    </edge>
    <edge id=":1240469661_10" function="internal">
        <lane id=":1240469661_10_0" index="0" speed="9.72" length="4.79" width="1.00" shape="463.00,1447.27 462.91,1449.25 462.19,1451.97"/>
    </edge>
    <edge id=":1240469661_11" function="internal">
        <lane id=":1240469661_11_0" index="0" speed="13.89" length="2.41" shape="462.34,1447.00 461.68,1447.65 460.25,1448.04"/>
    </edge>
    <edge id=":1240469661_6" function="internal">
        <lane id=":1240469661_6_0" index="0" disallow="tram rail_urban rail rail_electric ship" speed="9.72" length="4.15" shape="461.15,1451.61 461.47,1450.29 461.43,1449.25 461.02,1448.50 460.25,1448.04"/>
    </edge>
    <edge id=":1240469661_7" function="internal">
        <lane id=":1240469661_7_0" index="0" disallow="tram rail_urban rail rail_electric ship" speed="9.72" length="7.85" shape="461.15,1451.61 462.24,1449.02 463.43,1447.31 464.73,1446.48 466.14,1446.54"/>
    </edge>
    <edge id=":1240469661_8" function="internal">
        <lane id=":1240469661_8_0" index="0" allow="bicycle" speed="5.56" length="1.61" width="1.00" shape="461.15,1451.61 461.55,1451.31 461.85,1451.27 462.07,1451.49 462.19,1451.97"/>
    </edge>
    <edge id=":133378424_0" function="internal">
        <lane id=":133378424_0_0" index="0" allow="bicycle pedestrian" speed="2.78" length="3.21" width="2.00" shape="1038.30,1868.96 1038.31,1868.01 1038.37,1867.36 1038.51,1866.72 1038.70,1865.79"/>
    </edge>
    <edge id=":133380165_0" function="internal">
        <lane id=":133380165_0_0" index="0" disallow="tram rail_urban rail rail_electric ship" speed="8.33" length="21.01" shape="1028.13,1482.93 1025.40,1479.29 1020.93,1475.60 1016.00,1472.35 1011.85,1470.01"/>
    </edge>
    <edge id=":133380165_1" function="internal">
        <lane id=":133380165_1_0" index="0" disallow="tram rail_urban rail rail_electric ship" speed="4.17" length="22.34" shape="1028.13,1482.93 1025.79,1478.65 1022.33,1473.42 1018.73,1468.27 1015.96,1464.22"/>
    </edge>
    <edge id=":133380165_2" function="internal">
        <lane id=":133380165_2_0" index="0" disallow="tram rail_urban rail rail_electric ship" speed="8.33" length="12.40" shape="1028.13,1482.93 1026.69,1478.57 1026.83,1476.10 1028.54,1475.52 1031.83,1476.82"/>
    </edge>
    <edge id=":133380165_3" function="internal">
        <lane id=":133380165_3_0" index="0" disallow="tram rail_urban rail rail_electric ship" speed="13.89" length="20.79" shape="1030.24,1479.71 1011.85,1470.01"/>
    </edge>
    <edge id=":133380165_4" function="internal">
        <lane id=":133380165_4_0" index="0" disallow="tram rail_urban rail rail_electric ship" speed="9.72" length="21.18" shape="1030.24,1479.71 1026.54,1476.86 1022.47,1472.64 1018.72,1468.08 1015.96,1464.22"/>
    </edge>
    <edge id=":133380165_5" function="internal">
        <lane id=":133380165_5_0" index="0" disallow="tram rail_urban rail rail_electric ship" speed="13.89" length="4.82" shape="1030.24,1479.71 1029.55,1478.39 1029.59,1477.47 1030.34,1476.94 1031.83,1476.82"/>
    </edge>
    <edge id=":133380165_6" function="internal">
        <lane id=":133380165_6_0" index="0" allow="rail rail_electric" speed="83.33" length="19.25" shape="1024.36,1464.26 1025.10,1483.50"/>
    </edge>
    <edge id=":133380165_7" function="internal">
        <lane id=":133380165_7_0" index="0" disallow="tram rail_urban rail rail_electric ship" speed="9.72" length="19.57" shape="1018.74,1462.44 1021.31,1466.12 1024.65,1470.30 1028.31,1474.15 1031.83,1476.82"/>
    </edge>
    <edge id=":133380165_8" function="internal">
        <lane id=":133380165_8_0" index="0" disallow="tram rail_urban rail rail_electric ship" speed="9.72" length="22.21" shape="1018.74,1462.44 1022.32,1469.15 1022.36,1472.65 1018.87,1472.94 1011.85,1470.01"/>
    </edge>
    <edge id=":133380165_9" function="internal">
        <lane id=":133380165_9_0" index="0" disallow="tram rail_urban rail rail_electric ship" speed="5.56" length="4.82" shape="1018.74,1462.44 1018.71,1463.92 1018.24,1464.72 1017.33,1464.81 1015.96,1464.22"/>
    </edge>
    <edge id=":133380165_10" function="internal">
        <lane id=":133380165_10_0" index="0" disallow="tram rail_urban rail rail_electric ship" speed="9.72" length="8.39" shape="1013.36,1467.08 1016.01,1468.18 1017.33,1468.08 1017.31,1466.75 1015.96,1464.22"/>
    </edge>
    <edge id=":133380165_11" function="internal">
        <lane id=":133380165_11_0" index="0" disallow="tram rail_urban rail rail_electric ship" speed="13.89" length="20.88" shape="1013.36,1467.08 1031.83,1476.82"/>
    </edge>
    <edge id=":133380165_12" function="internal">
        <lane id=":133380165_12_0" index="0" disallow="tram rail_urban rail rail_electric ship" speed="13.89" length="4.82" shape="1013.36,1467.08 1014.08,1468.38 1014.07,1469.30 1013.33,1469.85 1011.85,1470.01"/>
    </edge>
    <edge id=":1463941346_0" function="internal">
        <lane id=":1463941346_0_0" index="0" disallow="tram rail_urban rail rail_electric ship" speed="13.89" length="5.07" shape="770.74,1269.14 770.53,1274.20"/>
    </edge>
    <edge id=":1463941346_1" function="internal">
        <lane id=":1463941346_1_0" index="0" disallow="tram rail_urban rail rail_electric ship" speed="13.89" length="2.41" shape="770.74,1269.14 769.86,1270.34 769.01,1270.71"/>
    </edge>
    <edge id=":1463941346_4" function="internal">
        <lane id=":1463941346_4_0" index="0" speed="13.89" length="2.41" shape="769.01,1270.71 768.21,1270.25 767.44,1268.98"/>
    </edge>
    <edge id=":1463941346_2" function="internal">
        <lane id=":1463941346_2_0" index="0" disallow="tram rail_urban rail rail_electric ship" speed="13.89" length="5.07" shape="767.23,1274.04 767.44,1268.98"/>
    </edge>
    <edge id=":1463941346_3" function="internal">
        <lane id=":1463941346_3_0" index="0" disallow="tram rail_urban rail rail_electric ship" speed="13.89" length="2.41" shape="767.23,1274.04 768.12,1272.84 768.96,1272.47"/>
    </edge>
    <edge id=":1463941346_5" function="internal">
        <lane id=":1463941346_5_0" index="0" speed="13.89" length="2.41" shape="768.96,1272.47 769.77,1272.92 770.53,1274.20"/>
    </edge>
    <edge id=":1463941358_0" function="internal">
        <lane id=":1463941358_0_0" index="0" disallow="tram rail_urban rail rail_electric ship" speed="13.89" length="5.17" shape="763.94,1169.84 763.36,1171.25 763.06,1172.27 762.98,1173.32 763.10,1174.84"/>
    </edge>
    <edge id=":1463941358_1" function="internal">
        <lane id=":1463941358_1_0" index="0" disallow="tram rail_urban rail rail_electric ship" speed="13.89" length="2.53" shape="763.94,1169.84 762.71,1170.66 761.79,1170.73 761.71,1170.64"/>
    </edge>
    <edge id=":1463941358_4" function="internal">
        <lane id=":1463941358_4_0" index="0" speed="13.89" length="2.29" shape="761.71,1170.64 761.18,1170.03 760.90,1168.57"/>
    </edge>
    <edge id=":1463941358_2" function="internal">
        <lane id=":1463941358_2_0" index="0" disallow="tram rail_urban rail rail_electric ship" speed="13.89" length="5.20" shape="759.64,1173.51 759.59,1172.00 759.80,1170.97 760.25,1169.98 760.90,1168.57"/>
    </edge>
    <edge id=":1463941358_3" function="internal">
        <lane id=":1463941358_3_0" index="0" disallow="tram rail_urban rail rail_electric ship" speed="13.89" length="2.10" shape="759.64,1173.51 761.00,1172.55 761.44,1172.51"/>
    </edge>
    <edge id=":1463941358_5" function="internal">
        <lane id=":1463941358_5_0" index="0" speed="13.89" length="3.30" shape="761.44,1172.51 762.03,1172.45 762.73,1173.21 763.10,1174.84"/>
    </edge>
    <edge id=":1463941359_0" function="internal">
        <lane id=":1463941359_0_0" index="0" allow="delivery bicycle pedestrian" speed="8.33" length="5.17" shape="698.93,1214.21 697.33,1219.13"/>
    </edge>
    <edge id=":1463941359_1" function="internal">
        <lane id=":1463941359_1_0" index="0" allow="delivery bicycle pedestrian" speed="8.33" length="2.41" shape="698.93,1214.21 697.76,1215.13 696.85,1215.27"/>
    </edge>
    <edge id=":1463941359_4" function="internal">
        <lane id=":1463941359_4_0" index="0" speed="8.33" length="2.41" shape="696.85,1215.27 696.19,1214.62 695.79,1213.19"/>
    </edge>
    <edge id=":1463941359_2" function="internal">
        <lane id=":1463941359_2_0" index="0" allow="delivery bicycle pedestrian" speed="8.33" length="5.16" shape="694.19,1218.10 695.79,1213.19"/>
    </edge>
    <edge id=":1463941359_3" function="internal">
        <lane id=":1463941359_3_0" index="0" allow="delivery bicycle pedestrian" speed="8.33" length="2.41" shape="694.19,1218.10 695.36,1217.18 696.27,1217.05"/>
    </edge>
    <edge id=":1463941359_5" function="internal">
        <lane id=":1463941359_5_0" index="0" speed="8.33" length="2.41" shape="696.27,1217.05 696.93,1217.69 697.33,1219.13"/>
    </edge>
    <edge id=":1463941360_0" function="internal">
        <lane id=":1463941360_0_0" index="0" disallow="tram rail_urban rail rail_electric ship" speed="13.89" length="4.99" shape="656.52,1198.47 655.05,1203.23"/>
    </edge>
    <edge id=":1463941360_1" function="internal">
        <lane id=":1463941360_1_0" index="0" disallow="tram rail_urban rail rail_electric ship" speed="13.89" length="2.41" shape="656.52,1198.47 655.38,1199.41 654.47,1199.57"/>
    </edge>
    <edge id=":1463941360_4" function="internal">
        <lane id=":1463941360_4_0" index="0" speed="13.89" length="2.41" shape="654.47,1199.57 653.80,1198.94 653.36,1197.51"/>
    </edge>
    <edge id=":1463941360_2" function="internal">
        <lane id=":1463941360_2_0" index="0" disallow="tram rail_urban rail rail_electric ship" speed="13.89" length="4.95" shape="651.91,1202.25 653.36,1197.51"/>
    </edge>
    <edge id=":1463941360_3" function="internal">
        <lane id=":1463941360_3_0" index="0" disallow="tram rail_urban rail rail_electric ship" speed="13.89" length="2.41" shape="651.91,1202.25 653.06,1201.31 653.97,1201.17"/>
    </edge>
    <edge id=":1463941360_5" function="internal">
        <lane id=":1463941360_5_0" index="0" speed="13.89" length="2.41" shape="653.97,1201.17 654.64,1201.81 655.05,1203.23"/>
    </edge>
    <edge id=":1463942487_0" function="internal">
        <lane id=":1463942487_0_0" index="0" disallow="tram rail_urban rail rail_electric ship" speed="13.89" length="5.01" shape="464.17,784.41 459.86,786.96"/>
    </edge>
    <edge id=":1463942487_1" function="internal">
        <lane id=":1463942487_1_0" index="0" disallow="tram rail_urban rail rail_electric ship" speed="13.89" length="2.41" shape="464.17,784.41 462.68,784.33 461.91,783.83"/>
    </edge>
    <edge id=":1463942487_4" function="internal">
        <lane id=":1463942487_4_0" index="0" speed="13.89" length="2.41" shape="461.91,783.83 461.84,782.91 462.49,781.57"/>
    </edge>
    <edge id=":1463942487_2" function="internal">
        <lane id=":1463942487_2_0" index="0" disallow="tram rail_urban rail rail_electric ship" speed="13.89" length="5.00" shape="458.18,784.11 462.49,781.57"/>
    </edge>
    <edge id=":1463942487_3" function="internal">
        <lane id=":1463942487_3_0" index="0" disallow="tram rail_urban rail rail_electric ship" speed="13.89" length="2.41" shape="458.18,784.11 459.67,784.20 460.44,784.70"/>
    </edge>
    <edge id=":1463942487_5" function="internal">
        <lane id=":1463942487_5_0" index="0" speed="13.89" length="2.41" shape="460.44,784.70 460.51,785.62 459.86,786.96"/>
    </edge>
    <edge id=":1463942501_0" function="internal">
        <lane id=":1463942501_0_0" index="0" disallow="tram rail_urban rail rail_electric ship" speed="13.89" length="5.00" shape="422.98,711.12 418.63,713.57"/>
    </edge>
    <edge id=":1463942501_1" function="internal">
        <lane id=":1463942501_1_0" index="0" disallow="tram rail_urban rail rail_electric ship" speed="13.89" length="2.41" shape="422.98,711.12 421.50,711.01 420.74,710.49"/>
    </edge>
    <edge id=":1463942501_4" function="internal">
        <lane id=":1463942501_4_0" index="0" speed="13.89" length="2.41" shape="420.74,710.49 420.69,709.57 421.36,708.24"/>
    </edge>
    <edge id=":1463942501_2" function="internal">
        <lane id=":1463942501_2_0" index="0" disallow="tram rail_urban rail rail_electric ship" speed="13.89" length="5.00" shape="417.01,710.70 421.36,708.24"/>
    </edge>
    <edge id=":1463942501_3" function="internal">
        <lane id=":1463942501_3_0" index="0" disallow="tram rail_urban rail rail_electric ship" speed="13.89" length="2.41" shape="417.01,710.70 418.49,710.81 419.25,711.32"/>
    </edge>
    <edge id=":1463942501_5" function="internal">
        <lane id=":1463942501_5_0" index="0" speed="13.89" length="2.41" shape="419.25,711.32 419.30,712.25 418.63,713.57"/>
    </edge>
    <edge id=":1600584192_0" function="internal">
        <lane id=":1600584192_0_0" index="0" disallow="tram rail_urban rail rail_electric ship" speed="13.89" length="4.99" shape="697.16,1526.50 695.92,1525.70 695.12,1525.08 694.35,1524.41 693.22,1523.45"/>
    </edge>
    <edge id=":1600584192_1" function="internal">
        <lane id=":1600584192_1_0" index="0" disallow="tram rail_urban rail rail_electric ship" speed="13.89" length="2.15" shape="697.16,1526.50 696.72,1525.06 696.87,1524.43"/>
    </edge>
    <edge id=":1600584192_4" function="internal">
        <lane id=":1600584192_4_0" index="0" speed="13.89" length="2.72" shape="696.87,1524.43 696.93,1524.16 697.78,1523.78 699.28,1523.93"/>
    </edge>
    <edge id=":1600584192_2" function="internal">
        <lane id=":1600584192_2_0" index="0" disallow="tram rail_urban rail rail_electric ship" speed="13.89" length="5.07" shape="695.55,1520.72 696.25,1521.99 697.00,1522.68 697.95,1523.20 699.28,1523.93"/>
    </edge>
    <edge id=":1600584192_3" function="internal">
        <lane id=":1600584192_3_0" index="0" disallow="tram rail_urban rail rail_electric ship" speed="13.89" length="2.84" shape="695.55,1520.72 695.99,1522.27 695.75,1523.24 695.55,1523.33"/>
    </edge>
    <edge id=":1600584192_5" function="internal">
        <lane id=":1600584192_5_0" index="0" speed="13.89" length="2.40" shape="695.55,1523.33 694.83,1523.64 693.22,1523.45"/>
    </edge>
    <edge id=":2511138687_0" function="internal">
        <lane id=":2511138687_0_0" index="0" allow="delivery bicycle pedestrian" speed="5.56" length="4.82" shape="1329.07,1303.91 1329.75,1305.23 1329.71,1306.15 1328.96,1306.67 1327.47,1306.80"/>
    </edge>
    <edge id=":2740102375_0" function="internal">
        <lane id=":2740102375_0_0" index="0" disallow="tram rail_urban rail rail_electric ship" speed="13.89" length="0.59" shape="786.78,1476.74 786.66,1476.61 786.58,1476.52 786.52,1476.41 786.45,1476.25"/>
    </edge>
    <edge id=":2740102379_0" function="internal">
        <lane id=":2740102379_0_0" index="0" disallow="tram rail_urban rail rail_electric ship" speed="13.89" length="5.65" shape="809.90,1473.64 808.39,1473.84 807.08,1474.32 805.97,1475.08 805.06,1476.12"/>
    </edge>
    <edge id=":2740102379_1" function="internal">
        <lane id=":2740102379_1_0" index="0" disallow="tram rail_urban rail rail_electric ship" speed="13.89" length="2.74" shape="809.90,1473.64 808.64,1472.86 808.20,1472.05 808.33,1471.75"/>
    </edge>
    <edge id=":2740102379_4" function="internal">
        <lane id=":2740102379_4_0" index="0" speed="13.89" length="2.08" shape="808.33,1471.75 808.58,1471.21 809.79,1470.34"/>
    </edge>
    <edge id=":2740102379_2" function="internal">
        <lane id=":2740102379_2_0" index="0" disallow="tram rail_urban rail rail_electric ship" speed="13.89" length="4.91" shape="806.28,1467.39 806.94,1468.72 807.75,1469.65 808.70,1470.19 809.79,1470.34"/>
    </edge>
    <edge id=":2740102379_3" function="internal">
        <lane id=":2740102379_3_0" index="0" disallow="tram rail_urban rail rail_electric ship" speed="13.89" length="9.19" shape="806.28,1467.39 806.85,1469.60 806.84,1471.79 806.24,1473.96 805.06,1476.12"/>
    </edge>
    <edge id=":2740118620_0" function="internal">
        <lane id=":2740118620_0_0" index="0" disallow="tram rail_urban rail rail_electric ship" speed="13.89" length="4.82" shape="756.16,998.17 756.98,996.93 757.81,996.51 758.63,996.92 759.46,998.15"/>
    </edge>
    <edge id=":2740119393_0" function="internal">
        <lane id=":2740119393_0_0" index="0" disallow="tram rail_urban rail rail_electric ship" speed="13.89" length="0.42" shape="873.35,962.90 873.26,962.80 873.21,962.74 873.17,962.66 873.11,962.55"/>
    </edge>
    <edge id=":2740119411_0" function="internal">
        <lane id=":2740119411_0_0" index="0" disallow="tram rail_urban rail rail_electric ship" speed="13.89" length="5.72" shape="886.25,965.08 884.73,964.62 883.30,964.46 881.95,964.61 880.69,965.06"/>
    </edge>
    <edge id=":2740119411_1" function="internal">
        <lane id=":2740119411_1_0" index="0" disallow="tram rail_urban rail rail_electric ship" speed="13.89" length="2.74" shape="886.25,965.08 885.41,963.86 885.33,962.94 885.58,962.72"/>
    </edge>
    <edge id=":2740119411_4" function="internal">
        <lane id=":2740119411_4_0" index="0" speed="13.89" length="2.08" shape="885.58,962.72 886.02,962.33 887.47,962.02"/>
    </edge>
    <edge id=":2740119411_2" function="internal">
        <lane id=":2740119411_2_0" index="0" disallow="tram rail_urban rail rail_electric ship" speed="13.89" length="5.12" shape="885.05,957.76 885.37,959.33 885.87,960.56 886.58,961.46 887.47,962.02"/>
    </edge>
    <edge id=":2740119411_3" function="internal">
        <lane id=":2740119411_3_0" index="0" disallow="tram rail_urban rail rail_electric ship" speed="13.89" length="9.12" shape="885.05,957.76 885.01,960.02 884.26,961.99 882.83,963.67 880.69,965.06"/>
    </edge>
    <edge id=":2740119746_0" function="internal">
        <lane id=":2740119746_0_0" index="0" disallow="tram rail_urban rail rail_electric ship" speed="13.89" length="0.42" shape="835.36,844.09 835.28,843.98 835.23,843.91 835.19,843.84 835.15,843.72"/>
    </edge>
    <edge id=":2740119752_0" function="internal">
        <lane id=":2740119752_0_0" index="0" disallow="tram rail_urban rail rail_electric ship" speed="13.89" length="5.03" shape="851.89,845.29 850.73,844.89 849.57,844.91 848.43,845.34 847.28,846.18"/>
    </edge>
    <edge id=":2740119752_1" function="internal">
        <lane id=":2740119752_1_0" index="0" disallow="tram rail_urban rail rail_electric ship" speed="13.89" length="2.65" shape="851.89,845.29 851.17,843.99 851.19,843.07 851.38,842.93"/>
    </edge>
    <edge id=":2740119752_4" function="internal">
        <lane id=":2740119752_4_0" index="0" speed="13.89" length="2.17" shape="851.38,842.93 851.93,842.52 853.41,842.36"/>
    </edge>
    <edge id=":2740119752_2" function="internal">
        <lane id=":2740119752_2_0" index="0" disallow="tram rail_urban rail rail_electric ship" speed="13.89" length="5.25" shape="850.55,838.20 850.89,839.55 851.48,840.69 852.32,841.63 853.41,842.36"/>
    </edge>
    <edge id=":2740119752_3" function="internal">
        <lane id=":2740119752_3_0" index="0" disallow="tram rail_urban rail rail_electric ship" speed="13.89" length="8.98" shape="850.55,838.20 850.59,840.34 850.06,842.38 848.96,844.33 847.28,846.18"/>
    </edge>
    <edge id=":284022645_0" function="internal">
        <lane id=":284022645_0_0" index="0" disallow="tram rail_urban rail rail_electric ship" speed="13.89" length="5.02" shape="448.93,177.93 448.69,176.57 448.07,175.61 447.08,175.06 445.73,174.90"/>
    </edge>
    <edge id=":284022645_1" function="internal">
        <lane id=":284022645_1_0" index="0" disallow="tram rail_urban rail rail_electric ship" speed="13.89" length="10.34" shape="448.93,177.93 449.22,175.11 450.35,173.07 452.30,171.79 455.09,171.29"/>
    </edge>
    <edge id=":284022645_2" function="internal">
        <lane id=":284022645_2_0" index="0" disallow="tram rail_urban rail rail_electric ship" speed="13.89" length="4.82" shape="448.93,177.93 449.71,176.66 450.52,176.22 451.36,176.60 452.23,177.80"/>
    </edge>
    <edge id=":284022645_3" function="internal">
        <lane id=":284022645_3_0" index="0" disallow="tram rail_urban rail rail_electric ship" speed="13.89" length="5.00" shape="455.21,174.59 453.86,174.83 452.91,175.45 452.37,176.44 452.23,177.80"/>
    </edge>
    <edge id=":284022645_4" function="internal">
        <lane id=":284022645_4_0" index="0" disallow="tram rail_urban rail rail_electric ship" speed="13.89" length="9.49" shape="455.21,174.59 445.73,174.90"/>
    </edge>
    <edge id=":284022645_5" function="internal">
        <lane id=":284022645_5_0" index="0" disallow="tram rail_urban rail rail_electric ship" speed="13.89" length="2.41" shape="455.21,174.59 453.95,173.81 453.50,173.00"/>
    </edge>
    <edge id=":284022645_9" function="internal">
        <lane id=":284022645_9_0" index="0" speed="13.89" length="2.41" shape="453.50,173.00 453.89,172.16 455.09,171.29"/>
    </edge>
    <edge id=":284022645_6" function="internal">
        <lane id=":284022645_6_0" index="0" disallow="tram rail_urban rail rail_electric ship" speed="13.89" length="9.47" shape="445.63,171.60 455.09,171.29"/>
    </edge>
    <edge id=":284022645_7" function="internal">
        <lane id=":284022645_7_0" index="0" disallow="tram rail_urban rail rail_electric ship" speed="13.89" length="5.24" shape="445.63,171.60 448.42,171.92 450.45,173.06 450.51,173.14"/>
    </edge>
    <edge id=":284022645_8" function="internal">
        <lane id=":284022645_8_0" index="0" disallow="tram rail_urban rail rail_electric ship" speed="13.89" length="2.41" shape="445.63,171.60 446.89,172.39 447.32,173.20"/>
    </edge>
    <edge id=":284022645_10" function="internal">
        <lane id=":284022645_10_0" index="0" speed="13.89" length="5.06" shape="450.51,173.14 451.72,175.02 452.23,177.80"/>
    </edge>
    <edge id=":284022645_11" function="internal">
        <lane id=":284022645_11_0" index="0" speed="13.89" length="2.41" shape="447.32,173.20 446.94,174.04 445.73,174.90"/>
    </edge>
    <edge id=":284022665_0" function="internal">
        <lane id=":284022665_0_0" index="0" disallow="tram rail_urban rail rail_electric ship" speed="13.89" length="4.82" shape="1182.37,1561.07 1183.03,1562.41 1182.97,1563.33 1182.19,1563.83 1180.71,1563.92"/>
    </edge>
    <edge id=":284023376_0" function="internal">
        <lane id=":284023376_0_0" index="0" disallow="tram rail_urban rail rail_electric ship" speed="13.89" length="5.06" shape="888.16,1407.31 886.82,1406.92 885.70,1407.07 884.79,1407.75 884.10,1408.96"/>
    </edge>
    <edge id=":284023376_1" function="internal">
        <lane id=":284023376_1_0" index="0" disallow="tram rail_urban rail rail_electric ship" speed="13.89" length="9.61" shape="888.16,1407.31 879.27,1403.65"/>
    </edge>
    <edge id=":284023376_2" function="internal">
        <lane id=":284023376_2_0" index="0" disallow="tram rail_urban rail rail_electric ship" speed="13.89" length="5.28" shape="888.16,1407.31 885.72,1405.77 884.31,1403.85"/>
    </edge>
    <edge id=":284023376_3" function="internal">