<?xml version="1.0" encoding="UTF-8"?>
<!-- generated on 2018-09-25 21:00:53.834972 by $Id$
  options: -n rail_markham.net.xml -r rail_markham.rou.xml -e 50 -l
-->
<routes xmlns:xsi="http://www.w3.org/2001/XMLSchema-instance" xsi:noNamespaceSchemaLocation="http://sumo.dlr.de/xsd/routes_file.xsd">
    <trip id="0" depart="0.00" from="39497575" to="41124455#0"/>
    <trip id="1" depart="1.00" from="-39501780" to="39501780"/>
    <trip id="2" depart="2.00" from="39502078" to="39497329#3"/>
    <trip id="3" depart="3.00" from="39497329#3" to="-109237755#18"/>
    <trip id="4" depart="4.00" from="-39497559" to="-39497773#0"/>
    <trip id="5" depart="5.00" from="109237755#15" to="32869655#7"/>
    <trip id="6" depart="6.00" from="109237755#12" to="-109237755#17"/>
    <trip id="7" depart="7.00" from="39501878#1" to="-98544289#0"/>
    <trip id="8" depart="8.00" from="-39501780" to="41124456"/>
    <trip id="9" depart="9.00" from="39497553#5" to="-109237755#15"/>
    <trip id="10" depart="10.00" from="-39497558#2" to="-32869655#0"/>
    <trip id="11" depart="11.00" from="-109237755#15" to="109237755#15"/>
    <trip id="12" depart="12.00" from="39497773#2" to="-109237755#21"/>
    <trip id="13" depart="13.00" from="39501878#3" to="-109237755#18"/>
    <trip id="14" depart="14.00" from="-39497771#0" to="109237755#18"/>
    <trip id="15" depart="15.00" from="39501250#0" to="109237755#15"/>
    <trip id="16" depart="16.00" from="109237755#18" to="-39497329#2"/>
    <trip id="17" depart="17.00" from="30734889#0" to="-109237755#18"/>
    <trip id="18" depart="18.00" from="-109237755#18" to="32869655#7"/>
    <trip id="19" depart="19.00" from="-39501878#4" to="39497556"/>
    <trip id="20" depart="20.00" from="39502078" to="39497329#6"/>
    <trip id="21" depart="21.00" from="39497329#3" to="109237755#9"/>
    <trip id="22" depart="22.00" from="32869655#7" to="39497771#4"/>
    <trip id="23" depart="23.00" from="32869655#7" to="-109237755#15"/>
    <trip id="24" depart="24.00" from="39497558#1" to="39497558#2"/>
    <trip id="25" depart="25.00" from="-109237755#13" to="-39501878#4"/>
    <trip id="26" depart="26.00" from="39497329#4" to="39497773#3"/>
    <trip id="27" depart="27.00" from="-39502078" to="41124456"/>
    <trip id="28" depart="28.00" from="109237755#15" to="39497554"/>
    <trip id="29" depart="29.00" from="39501878#1" to="39497558#1"/>
    <trip id="30" depart="30.00" from="39497553#4" to="39497558#2"/>
    <trip id="31" depart="31.00" from="39501250#1" to="-109237755#18"/>
    <trip id="32" depart="32.00" from="39501250#3" to="-39501250#0"/>
    <trip id="33" depart="33.00" from="-39502078" to="-39497773#3"/>
    <trip id="34" depart="34.00" from="109237755#1" to="109237755#17"/>
    <trip id="35" depart="35.00" from="39502111" to="109237755#18"/>
    <trip id="36" depart="36.00" from="109237755#15" to="59677086"/>
    <trip id="37" depart="37.00" from="-39501878#1" to="109237755#15"/>
    <trip id="38" depart="38.00" from="-109237755#18" to="-109237755#18"/>
    <trip id="39" depart="39.00" from="-109237755#18" to="109237755#6"/>
    <trip id="40" depart="40.00" from="-41124458#1" to="59677086"/>
    <trip id="41" depart="41.00" from="-109237755#16" to="39497558#2"/>
    <trip id="42" depart="42.00" from="-39502078" to="39497329#2"/>
    <trip id="43" depart="43.00" from="32869655#0" to="39497772#2"/>
    <trip id="44" depart="44.00" from="39502078" to="-39501878#3"/>
    <trip id="45" depart="45.00" from="-109237755#14" to="39497558#0"/>
    <trip id="46" depart="46.00" from="39497771#5" to="39497329#5"/>
    <trip id="47" depart="47.00" from="109237755#18" to="-30734889#0"/>
    <trip id="48" depart="48.00" from="-39497558#2" to="-39497805"/>
    <trip id="49" depart="49.00" from="-39497553#4" to="39501250#3"/>
</routes>
